*Test runs
ROCKS----1----*----2----*----3----*----4----*----5----*----6----*----7----*----8
basam    02.6500E+031.0000E-011.0000E-211.0000E-211.0000E-212.1000E+008.5000E+02
barri    02.6500E+031.0000E-011.0000E-201.0000E-201.0000E-202.1000E+008.5000E+02
sorrn    02.6500E+031.0000E-011.0000E-191.0000E-191.0000E-192.1000E+008.5000E+02
rock1    02.6500E+031.0000E-011.0000E-181.0000E-181.0000E-182.1000E+008.5000E+02
caprk    02.6500E+031.0000E-011.0000E-181.0000E-181.0000E-182.1000E+008.5000E+02

START----1----*----2----*----3----*----4----*----5----*----6----*----7----*----8
----*----1 MOP: 123456789*123456789*1234 ---*----5----*----6----*----7----*----8
PARAM----1----*----2----*----3----*----4----*----5----*----6----*----7----*----8
  202999    50001000102000020004    2                       
-3.140E+14           3.140E+07                     9.810E+00 3.500E+00          
 1.000E-03                                                  
 1.0000000000000E+07 2.5000000000000E+02 1.0000000000000E+05

MULTI----1----*----2----*----3----*----4----*----5----*----6----*----7----*----8
    1    2    2    6

SOLVR----1----*----2----*----3----*----4----*----5----*----6----*----7----*----8
5  Z4   O4 4.000E-02 1.000E-06          

RPCAP----1----*----2----*----3----*----4----*----5----*----6----*----7----*----8
    3      4.000E-01 3.000E-02                                                  
    1      1.000E+06 0.000E+00 1.000E+00                                        

FOFT ----1----*----2----*----3----*----4----*----5----*----6----*----7----*----8
CA114
CA115
CA118
CA124
CA149
CA151
CA152
DA110
DA116
DA120
DA122
DA126
DA128
DA129
DA146
DA147
EA113
EA123
EA130
EA150
FA111
FA127
FA148
FA153
GA134
GA135
GA139
GA140
HA142
HA143
IA117
IA119
IA121
IA125
IA131
IA133
IA141
IA144
IA145
JA136
JA137
JA138
JA154
KA156
KA157
KA158
KA160
MA155

TIMES----1----*----2----*----3----*----4----*----5----*----6----*----7----*----8
  100  100                    
 1.578E+07 3.156E+07 4.734E+07 6.312E+07 7.889E+07 9.467E+07 1.105E+08 1.262E+08
 1.420E+08 1.578E+08 1.736E+08 1.893E+08 2.051E+08 2.209E+08 2.367E+08 2.525E+08
 2.682E+08 2.840E+08 2.998E+08 3.156E+08 3.314E+08 3.471E+08 3.629E+08 3.787E+08
 3.945E+08 4.102E+08 4.260E+08 4.418E+08 4.576E+08 4.734E+08 4.891E+08 5.049E+08
 5.207E+08 5.365E+08 5.523E+08 5.680E+08 5.838E+08 5.996E+08 6.154E+08 6.312E+08
 6.469E+08 6.627E+08 6.785E+08 6.943E+08 7.100E+08 7.258E+08 7.416E+08 7.574E+08
 7.732E+08 7.889E+08 8.047E+08 8.205E+08 8.363E+08 8.521E+08 8.678E+08 8.836E+08
 8.994E+08 9.152E+08 9.309E+08 9.467E+08 9.625E+08 9.783E+08 9.941E+08 1.010E+09
 1.026E+09 1.041E+09 1.057E+09 1.073E+09 1.089E+09 1.105E+09 1.120E+09 1.136E+09
 1.152E+09 1.168E+09 1.183E+09 1.199E+09 1.215E+09 1.231E+09 1.247E+09 1.262E+09
 1.278E+09 1.294E+09 1.310E+09 1.325E+09 1.341E+09 1.357E+09 1.373E+09 1.389E+09
 1.404E+09 1.420E+09 1.436E+09 1.452E+09 1.467E+09 1.483E+09 1.499E+09 1.515E+09
 1.531E+09 1.546E+09 1.562E+09 1.578E+09

INCON
AA110                         
 0.1733956783181E+10 0.1731972332497E+03
AA111                         
 0.1734687178711E+10 0.1582361985987E+03
AA112                         
 0.1734384213773E+10 0.1753491301796E+03
AA113                         
 0.1736586530589E+10 0.1733182017784E+03
AA114                         
 0.1730039168359E+10 0.1764217408237E+03
AA115                         
 0.1732790253840E+10 0.1782256332184E+03
AA116                         
 0.1732739120146E+10 0.1781631224178E+03
AA117                         
 0.1732042280509E+10 0.1745337378355E+03
AA118                         
 0.1734096288707E+10 0.1782385972239E+03
AA119                         
 0.1734818495485E+10 0.1757415500212E+03
AA120                         
 0.1735987570544E+10 0.1690792346722E+03
AA121                         
 0.1733714480286E+10 0.1714824808960E+03
AA122                         
 0.1733281904017E+10 0.1747656387064E+03
AA123                         
 0.1734775601708E+10 0.1738542402144E+03
AA124                         
 0.1734220270787E+10 0.1740951085950E+03
AA125                         
 0.1732488142713E+10 0.1753331151602E+03
AA126                         
 0.1734379724635E+10 0.1715368541199E+03
AA127                         
 0.1733504471557E+10 0.1734043033637E+03
AA128                         
 0.1733028083895E+10 0.1767293855131E+03
AA129                         
 0.1733634281896E+10 0.1755320294961E+03
AA130                         
 0.1735134129559E+10 0.1691397261672E+03
AA131                         
 0.1732826902217E+10 0.1760432012158E+03
AA132                         
 0.1732637150955E+10 0.1778764425032E+03
AA133                         
 0.1732922461366E+10 0.1793611983552E+03
AA134                         
 0.1732642351270E+10 0.1792101400297E+03
AA135                         
 0.1733761756348E+10 0.1784483979734E+03
AA136                         
 0.1733793656248E+10 0.1784383490765E+03
AA137                         
 0.1733792585290E+10 0.1784042646535E+03
AA138                         
 0.1732068474981E+10 0.1804869630508E+03
AA139                         
 0.1732037778133E+10 0.1805226221216E+03
AA140                         
 0.1732006632142E+10 0.1805586565568E+03
AA141                         
 0.1734311167037E+10 0.1793316990825E+03
AA142                         
 0.1734302924677E+10 0.1793708476029E+03
AA143                         
 0.1734649861536E+10 0.1790904499433E+03
AA144                         
 0.1734335830686E+10 0.1792869911266E+03
AA145                         
 0.1731656446563E+10 0.1753120973341E+03
AA146                         
 0.1735565441392E+10 0.1726471589947E+03
AA147                         
 0.1734781555882E+10 0.1720289311698E+03
AA148                         
 0.1734725328840E+10 0.1689843085022E+03
AA149                         
 0.1732968946969E+10 0.1735964529605E+03
AA150                         
 0.1732162725302E+10 0.1772456519278E+03
AA151                         
 0.1730333353812E+10 0.1794848086628E+03
AA152                         
 0.1730288476092E+10 0.1817820559353E+03
AA153                         
 0.1740607985641E+10 0.1543264929573E+03
AA154                         
 0.1735080826178E+10 0.1714522355081E+03
AA155                         
 0.1740650671711E+10 0.1540131117448E+03
AA156                         
 0.1730964943762E+10 0.1848726118284E+03
AA157                         
 0.1744712607219E+10 0.1327169988930E+03
AA158                         
 0.1744806120591E+10 0.1320581641613E+03
AA159                         
 0.1744963749189E+10 0.1310566359846E+03
AA160                         
 0.1736098892091E+10 0.1773114097064E+03
AA161                         
 0.1719686895181E+10 0.2149494995592E+03
AA162                         
 0.1720035762153E+10 0.2144910174434E+03
AA163                         
 0.1720106161031E+10 0.2122679308841E+03
AA164                         
 0.1721859017561E+10 0.1954946273099E+03
AA165                         
 0.1722060089471E+10 0.1927460749876E+03
AA166                         
 0.1722509134150E+10 0.1903234542625E+03
AA167                         
 0.1722756513153E+10 0.1877557593954E+03
AA168                         
 0.1722775151447E+10 0.1855750038209E+03
AA169                         
 0.1722447893326E+10 0.1884283998742E+03
AA170                         
 0.1721727630768E+10 0.1947372395793E+03
AA171                         
 0.1721203695677E+10 0.2014026166356E+03
AA172                         
 0.1720666318816E+10 0.2068998779867E+03
AA173                         
 0.1720181484648E+10 0.2113889992452E+03
AA174                         
 0.1720061567515E+10 0.2136267614644E+03
AA175                         
 0.1719776308503E+10 0.2149740280096E+03
AA176                         
 0.1719460400313E+10 0.2177169077191E+03
AA177                         
 0.1719238398162E+10 0.2196575295823E+03
AA178                         
 0.1718971254321E+10 0.2208282716048E+03
AA179                         
 0.1720644397463E+10 0.2080174003031E+03
AA180                         
 0.1720845021115E+10 0.2062303568135E+03
AA181                         
 0.1721184746322E+10 0.2032803434951E+03
AA182                         
 0.1721641320901E+10 0.1992585940107E+03
AA183                         
 0.1722147116660E+10 0.1945154710037E+03
AA184                         
 0.1722433475740E+10 0.1867983639272E+03
AA185                         
 0.1719857788859E+10 0.2152622506670E+03
AA186                         
 0.1721618069758E+10 0.1971040265550E+03
AA187                         
 0.1720929156537E+10 0.2042638745733E+03
AA188                         
 0.1720348460905E+10 0.2096744057672E+03
AA189                         
 0.1719880328125E+10 0.2138233597188E+03
AA190                         
 0.1719522890813E+10 0.2169225215342E+03
AA191                         
 0.1719272719533E+10 0.2190815532538E+03
AA192                         
 0.1719126802937E+10 0.2203619795461E+03
AA193                         
 0.1720496948890E+10 0.2074219689870E+03
AA194                         
 0.1720917490839E+10 0.2053232849874E+03
AA195                         
 0.1721336992677E+10 0.2018603867432E+03
AA196                         
 0.1719642260398E+10 0.2170263808649E+03
AA197                         
 0.1721951999753E+10 0.1969954678402E+03
AA198                         
 0.1722772059682E+10 0.1910152216484E+03
AA199                         
 0.1723004104177E+10 0.1820107949893E+03
AA210                         
 0.1721932458553E+10 0.1942437727363E+03
AA211                         
 0.1721112275497E+10 0.2024650524750E+03
AA212                         
 0.1720451920397E+10 0.2085217520278E+03
AA213                         
 0.1719933888636E+10 0.2130792709189E+03
AA214                         
 0.1719544913249E+10 0.2164377098638E+03
AA215                         
 0.1719274639170E+10 0.2187553761613E+03
AA216                         
 0.1719115697858E+10 0.2201209793873E+03
AA217                         
 0.1719429811108E+10 0.2187762039381E+03
AA218                         
 0.1720351905111E+10 0.2074792413455E+03
AA219                         
 0.1720864843626E+10 0.2052773536911E+03
AA220                         
 0.1721307440871E+10 0.2016501168816E+03
AA221                         
 0.1721972604000E+10 0.1965115589716E+03
AA222                         
 0.1722894664868E+10 0.1901217502250E+03
AA223                         
 0.1723248927491E+10 0.1820542527790E+03
AA224                         
 0.1722049367774E+10 0.1935174224917E+03
AA225                         
 0.1721160902720E+10 0.2018864975255E+03
AA226                         
 0.1720459400851E+10 0.2081678399104E+03
AA227                         
 0.1719916902048E+10 0.2128956882257E+03
AA228                         
 0.1719235478627E+10 0.2203832172376E+03
AA229                         
 0.1719513430151E+10 0.2163668078073E+03
AA230                         
 0.1719234560506E+10 0.2187535646138E+03
AA231                         
 0.1719070660505E+10 0.2201563154453E+03
AA232                         
 0.1720146323998E+10 0.2082629182155E+03
AA233                         
 0.1720671339122E+10 0.2061922220969E+03
AA234                         
 0.1721062890511E+10 0.2028358791499E+03
AA235                         
 0.1721631086702E+10 0.1981741077120E+03
AA236                         
 0.1722359703974E+10 0.1925166488363E+03
AA237                         
 0.1723250561105E+10 0.1821331198916E+03
AA238                         
 0.1721951659769E+10 0.1941242595394E+03
AA239                         
 0.1719072872736E+10 0.2217417187920E+03
AA240                         
 0.1721051801954E+10 0.2024784538627E+03
AA241                         
 0.1720354453773E+10 0.2086786541142E+03
AA242                         
 0.1719818980305E+10 0.2133367220543E+03
AA243                         
 0.1719421855860E+10 0.2167575368879E+03
AA244                         
 0.1719147623644E+10 0.2191109138984E+03
AA245                         
 0.1718986426023E+10 0.2204944584927E+03
AA246                         
 0.1719871837998E+10 0.2096926149724E+03
AA247                         
 0.1720366411019E+10 0.2079061753892E+03
AA248                         
 0.1720665789716E+10 0.2050814008014E+03
AA249                         
 0.1721073836606E+10 0.2012745192068E+03
AA250                         
 0.1718954761267E+10 0.2227724650971E+03
AA251                         
 0.1721529124969E+10 0.1968102768162E+03
AA252                         
 0.1722807237903E+10 0.1849772255569E+03
AA253                         
 0.1721597875410E+10 0.1965559953503E+03
AA254                         
 0.1720775732353E+10 0.2043091939269E+03
AA255                         
 0.1720136179126E+10 0.2100476830485E+03
AA256                         
 0.1719641425264E+10 0.2143877185962E+03
AA257                         
 0.1719271915175E+10 0.2175978430742E+03
AA258                         
 0.1719015378211E+10 0.2198182173575E+03
AA259                         
 0.1718864071563E+10 0.2211277193250E+03
AA260                         
 0.1719548354551E+10 0.2115884705481E+03
AA261                         
 0.1718711373144E+10 0.2234278209234E+03
AA262                         
 0.1719999691749E+10 0.2101341857826E+03
AA263                         
 0.1720204927135E+10 0.2078943953716E+03
AA264                         
 0.1720467747554E+10 0.2049535594092E+03
AA265                         
 0.1720722287739E+10 0.2015893585979E+03
AA266                         
 0.1721855543993E+10 0.1928074190496E+03
AA267                         
 0.1721006016578E+10 0.2010371625421E+03
AA268                         
 0.1720357741292E+10 0.2072613293320E+03
AA269                         
 0.1719824593927E+10 0.2121407292022E+03
AA270                         
 0.1719398671871E+10 0.2159475102827E+03
AA271                         
 0.1719073989794E+10 0.2188162063369E+03
AA272                         
 0.1719756870060E+10 0.2143132012243E+03
AA273                         
 0.1718845621668E+10 0.2208233305034E+03
AA274                         
 0.1718709933179E+10 0.2220145180872E+03
AA275                         
 0.1719205134401E+10 0.2137405303287E+03
AA276                         
 0.1719616936557E+10 0.2125980570098E+03
AA277                         
 0.1719744750380E+10 0.2108818595723E+03
AA278                         
 0.1719896677961E+10 0.2086691967682E+03
AA279                         
 0.1720012927460E+10 0.2061751553379E+03
AA280                         
 0.1720786400782E+10 0.2010551248282E+03
AA281                         
 0.1720318857380E+10 0.2061696961817E+03
AA282                         
 0.1719869091600E+10 0.2107567850869E+03
AA283                         
 0.1720090991764E+10 0.2138257390573E+03
AA284                         
 0.1720107110802E+10 0.2137738641571E+03
AA285                         
 0.1719460729143E+10 0.2146554853985E+03
AA286                         
 0.1719116457776E+10 0.2178337418748E+03
AA287                         
 0.1718845452376E+10 0.2202920611122E+03
AA288                         
 0.1718651074245E+10 0.2220395157579E+03
AA289                         
 0.1718534330657E+10 0.2230855461113E+03
AA290                         
 0.1718869983132E+10 0.2159531064042E+03
AA291                         
 0.1719252643714E+10 0.2150737091551E+03
AA292                         
 0.1719325622921E+10 0.2137824530699E+03
AA293                         
 0.1719401103571E+10 0.2121352256816E+03
AA294                         
 0.1719403609186E+10 0.2102788498757E+03
AA295                         
 0.1720175619421E+10 0.2129824089781E+03
AA296                         
 0.1719379476785E+10 0.2084685102629E+03
AA297                         
 0.1719511022154E+10 0.2066567498546E+03
AA298                         
 0.1719636350087E+10 0.2050967111341E+03
AA299                         
 0.1719942767640E+10 0.2039327025515E+03
AA310                         
 0.1720002055762E+10 0.2038237750716E+03
AA311                         
 0.1719902175191E+10 0.2051389025830E+03
AA312                         
 0.1719863721096E+10 0.2075640941552E+03
AA313                         
 0.1719675509417E+10 0.2109107354197E+03
AA314                         
 0.1719388160271E+10 0.2142422305530E+03
AA315                         
 0.1719091230855E+10 0.2172673216933E+03
AA316                         
 0.1720272316419E+10 0.2120156946269E+03
AA317                         
 0.1718824577143E+10 0.2198390873812E+03
AA318                         
 0.1718606789558E+10 0.2218829303022E+03
AA319                         
 0.1718447035080E+10 0.2233609815132E+03
AA320                         
 0.1718349888325E+10 0.2242542376047E+03
AA321                         
 0.1718564429076E+10 0.2180627255786E+03
AA322                         
 0.1718929738382E+10 0.2173927826077E+03
AA323                         
 0.1718973261696E+10 0.2164303250189E+03
AA324                         
 0.1719025906006E+10 0.2152169786592E+03
AA325                         
 0.1719063778751E+10 0.2138713370663E+03
AA326                         
 0.1719100868064E+10 0.2125346807893E+03
AA327                         
 0.1720378508914E+10 0.2109935934277E+03
AA328                         
 0.1719180851154E+10 0.2112896429558E+03
AA329                         
 0.1719275837012E+10 0.2103016821921E+03
AA330                         
 0.1719395562719E+10 0.2097394249947E+03
AA331                         
 0.1719431521497E+10 0.2098951653785E+03
AA332                         
 0.1719394239834E+10 0.2109070676791E+03
AA333                         
 0.1719322639420E+10 0.2126565555687E+03
AA334                         
 0.1719174789524E+10 0.2149531737086E+03
AA335                         
 0.1718971396225E+10 0.2173983948969E+03
AA336                         
 0.1718753155481E+10 0.2197292828787E+03
AA337                         
 0.1718549107349E+10 0.2217808174103E+03
AA338                         
 0.1720478408047E+10 0.2100532776505E+03
AA339                         
 0.1718377382785E+10 0.2234513963217E+03
AA340                         
 0.1718248853940E+10 0.2246793825542E+03
AA341                         
 0.1718169776655E+10 0.2254284646268E+03
AA342                         
 0.1718302339245E+10 0.2199407059007E+03
AA343                         
 0.1718658187901E+10 0.2194300726799E+03
AA344                         
 0.1718685368951E+10 0.2187107897859E+03
AA345                         
 0.1718726020754E+10 0.2178133266757E+03
AA346                         
 0.1718768265456E+10 0.2168281597275E+03
AA347                         
 0.1718814232009E+10 0.2158589529280E+03
AA348                         
 0.1718872707536E+10 0.2150034278994E+03
AA349                         
 0.1720557248999E+10 0.2093287867232E+03
AA350                         
 0.1718935567758E+10 0.2143837738581E+03
AA351                         
 0.1718991718915E+10 0.2141288091290E+03
AA352                         
 0.1719006687753E+10 0.2143806119422E+03
AA353                         
 0.1718974466181E+10 0.2151985990533E+03
AA354                         
 0.1718901317320E+10 0.2165220105415E+03
AA355                         
 0.1718782561378E+10 0.2182146967833E+03
AA356                         
 0.1718630176307E+10 0.2200633292919E+03
AA357                         
 0.1718465461270E+10 0.2218790532597E+03
AA358                         
 0.1718308047867E+10 0.2235186543602E+03
AA359                         
 0.1718172857670E+10 0.2248806024615E+03
AA360                         
 0.1720601181877E+10 0.2089386551049E+03
AA361                         
 0.1718070186529E+10 0.2258960205151E+03
AA362                         
 0.1718006429414E+10 0.2265206185261E+03
AA363                         
 0.1718092181877E+10 0.2214903761463E+03
AA364                         
 0.1718442993557E+10 0.2210954740738E+03
AA365                         
 0.1718460402049E+10 0.2205484500136E+03
AA366                         
 0.1718492534155E+10 0.2198733206317E+03
AA367                         
 0.1718530227540E+10 0.2191412334867E+03
AA368                         
 0.1718570954794E+10 0.2184354348998E+03
AA369                         
 0.1718614152118E+10 0.2178428015458E+03
AA370                         
 0.1718654185986E+10 0.2174568012850E+03
AA371                         
 0.1720596081061E+10 0.2089847617348E+03
AA372                         
 0.1718681521720E+10 0.2173684901540E+03
AA373                         
 0.1718681780269E+10 0.2176552172093E+03
AA374                         
 0.1718648810431E+10 0.2183438541808E+03
AA375                         
 0.1718582860352E+10 0.2193945698983E+03
AA376                         
 0.1718485773221E+10 0.2207134964481E+03
AA377                         
 0.1718366101574E+10 0.2221666846097E+03
AA378                         
 0.1718237146720E+10 0.2236188269191E+03
AA379                         
 0.1718112740249E+10 0.2249535561105E+03
AA380                         
 0.1718004872595E+10 0.2260793843112E+03
AA381                         
 0.1717922663297E+10 0.2269288327300E+03
AA382                         
 0.1720531424292E+10 0.2095436938008E+03
AA383                         
 0.1717871303810E+10 0.2274549722538E+03
AA384                         
 0.1717939128367E+10 0.2226423388891E+03
AA385                         
 0.1718287266329E+10 0.2223259285443E+03
AA386                         
 0.1718298683113E+10 0.2218930709044E+03
AA387                         
 0.1718324732722E+10 0.2213650617451E+03
AA388                         
 0.1718356854825E+10 0.2208004867647E+03
AA389                         
 0.1718390777875E+10 0.2202690808021E+03
AA390                         
 0.1718423235943E+10 0.2198447216808E+03
AA391                         
 0.1718449212850E+10 0.2196013032817E+03
AA392                         
 0.1718461842716E+10 0.2196049198238E+03
AA393                         
 0.1720399185783E+10 0.2106365433577E+03
AA394                         
 0.1718453476416E+10 0.2199030154906E+03
AA395                         
 0.1718419765899E+10 0.2205078442841E+03
AA396                         
 0.1718360260220E+10 0.2213889249862E+03
AA397                         
 0.1718277639053E+10 0.2224778764970E+03
AA398                         
 0.1718178506670E+10 0.2236797412022E+03
AA399                         
 0.1718072436037E+10 0.2248920430267E+03
AA410                         
 0.1717970114942E+10 0.2260194006264E+03
AA411                         
 0.1717882033937E+10 0.2269815438803E+03
AA412                         
 0.1717817039625E+10 0.2277161586334E+03
AA413                         
 0.1717776118228E+10 0.2281733037565E+03
AA414                         
 0.1720171381908E+10 0.2130209682095E+03
AA415                         
 0.1720208408370E+10 0.2121922994506E+03
AA416                         
 0.1717846303843E+10 0.2233499609960E+03
AA417                         
 0.1718193091967E+10 0.2230795599192E+03
AA418                         
 0.1718201174163E+10 0.2227120100312E+03
AA419                         
 0.1718223542491E+10 0.2222681504721E+03
AA420                         
 0.1718251769388E+10 0.2217993686335E+03
AA421                         
 0.1718280961724E+10 0.2213673514873E+03
AA422                         
 0.1718307074192E+10 0.2210371626163E+03
AA423                         
 0.1718325456370E+10 0.2208712380526E+03
AA424                         
 0.1718330785555E+10 0.2209220142242E+03
AA425                         
 0.1718318001630E+10 0.2212231414928E+03
AA426                         
 0.1719982992877E+10 0.2140610895259E+03
AA427                         
 0.1718284004111E+10 0.2217803913397E+03
AA428                         
 0.1718228495643E+10 0.2225677155371E+03
AA429                         
 0.1718154109802E+10 0.2235299960858E+03
AA430                         
 0.1718066401944E+10 0.2245913150339E+03
AA431                         
 0.1717973244477E+10 0.2256668828990E+03
AA432                         
 0.1717884071700E+10 0.2266742852656E+03
AA433                         
 0.1717810001574E+10 0.2275425404490E+03
AA434                         
 0.1717560023330E+10 0.2282230836466E+03
AA435                         
 0.1717441008371E+10 0.2286444052986E+03
AA436                         
 0.1722044613550E+10 0.1960418693002E+03
AA437                         
 0.1719743268693E+10 0.2160611458602E+03
AA438                         
 0.1724423178438E+10 0.1896222788353E+03
AA439                         
 0.1723823330849E+10 0.1898639378902E+03
AA440                         
 0.1727088628230E+10 0.1832127047932E+03
AA441                         
 0.1724703792371E+10 0.1832627737745E+03
AA442                         
 0.1727722864005E+10 0.1681720819160E+03
AA443                         
 0.1723076025735E+10 0.1876912134840E+03
AA444                         
 0.1723572444759E+10 0.1913134695986E+03
AA445                         
 0.1728619128173E+10 0.1840510353116E+03
AA446                         
 0.1728770485149E+10 0.1834360945437E+03
AA447                         
 0.1730769380534E+10 0.1680217184920E+03
AA448                         
 0.1719508376821E+10 0.2180218138977E+03
AA449                         
 0.1729573592120E+10 0.1134307444769E+03
AA450                         
 0.1726080559020E+10 0.1725844664635E+03
AA451                         
 0.1724969227461E+10 0.1878139077742E+03
AA452                         
 0.1731061189843E+10 0.1809178005150E+03
AA453                         
 0.1732836310626E+10 0.1795054587459E+03
AA454                         
 0.1734733552556E+10 0.1633794588388E+03
AA455                         
 0.1734771640084E+10 0.1595201519549E+03
AA456                         
 0.1727795596991E+10 0.1688269650767E+03
AA457                         
 0.1724926506461E+10 0.1878610406855E+03
AA458                         
 0.1728712030055E+10 0.1839377247141E+03
AA459                         
 0.1719295117567E+10 0.2198012466524E+03
AA460                         
 0.1733520037869E+10 0.1794152498795E+03
AA461                         
 0.1735568594115E+10 0.1774291792967E+03
AA462                         
 0.1736683698262E+10 0.1692326495183E+03
AA463                         
 0.1737716434147E+10 0.1594730717563E+03
AA464                         
 0.1728739051887E+10 0.1743393940668E+03
AA465                         
 0.1723454233410E+10 0.1915284958933E+03
AA466                         
 0.1724661302209E+10 0.1895476092093E+03
AA467                         
 0.1730907487172E+10 0.1828560108639E+03
AA468                         
 0.1733506912498E+10 0.1810258588391E+03
AA469                         
 0.1738313197111E+10 0.1673956474308E+03
AA470                         
 0.1719117233270E+10 0.2212898635044E+03
AA471                         
 0.1752683160183E+10 0.9136805769085E+02
AA472                         
 0.1730060218323E+10 0.1695229905087E+03
AA473                         
 0.1721914281098E+10 0.1965933067700E+03
AA474                         
 0.1722347523455E+10 0.1956901796912E+03
AA475                         
 0.1723932005798E+10 0.1889495235035E+03
AA476                         
 0.1728943983788E+10 0.1877301277471E+03
AA477                         
 0.1735715634370E+10 0.1719843189931E+03
AA478                         
 0.1732378463766E+10 0.1739126754834E+03
AA479                         
 0.1728549805244E+10 0.1746331536056E+03
AA480                         
 0.1720794600381E+10 0.2017675806567E+03
AA481                         
 0.1718985576785E+10 0.2224080290908E+03
AA482                         
 0.1720858202860E+10 0.2015367185158E+03
AA483                         
 0.1722204072954E+10 0.1955809957636E+03
AA484                         
 0.1722938916330E+10 0.1960218686529E+03
AA485                         
 0.1728319253848E+10 0.1873249847398E+03
AA486                         
 0.1725106728057E+10 0.1926856623747E+03
AA487                         
 0.1724420252481E+10 0.1909290795216E+03
AA488                         
 0.1719972615729E+10 0.2065592406915E+03
AA489                         
 0.1719641518694E+10 0.2067855190433E+03
AA490                         
 0.1720675872066E+10 0.2019743338906E+03
AA491                         
 0.1720238095969E+10 0.2033091966665E+03
AA492                         
 0.1718907725558E+10 0.2231018537258E+03
AA493                         
 0.1722714689329E+10 0.1981258638547E+03
AA494                         
 0.1720711616606E+10 0.2026328725347E+03
AA495                         
 0.1721419426213E+10 0.2009184472634E+03
AA496                         
 0.1719872084781E+10 0.2133052730148E+03
AA497                         
 0.1720220850371E+10 0.2126278324248E+03
AA498                         
 0.1720259539799E+10 0.2121795292797E+03
AA499                         
 0.1720312669324E+10 0.2116169516889E+03
AA510                         
 0.1720437648557E+10 0.2103663097306E+03
AA511                         
 0.1720574575060E+10 0.2090262670815E+03
AA512                         
 0.1720706118563E+10 0.2077719678532E+03
AA513                         
 0.1720815528052E+10 0.2067662929434E+03
AA514                         
 0.1720888437542E+10 0.2061441343403E+03
AA515                         
 0.1720901947773E+10 0.2060346954670E+03
AA516                         
 0.1720836875736E+10 0.2065727467769E+03
AA517                         
 0.1720684829779E+10 0.2078459828640E+03
AA518                         
 0.1720458840780E+10 0.2097561649789E+03
AA519                         
 0.1720340882585E+10 0.2114184650983E+03
AA520                         
 0.1720190564786E+10 0.2120570414795E+03
AA521                         
 0.1719907850641E+10 0.2144792315866E+03
AA522                         
 0.1719634612278E+10 0.2168045850438E+03
AA523                         
 0.1719389883052E+10 0.2188745069469E+03
AA524                         
 0.1719187835559E+10 0.2205788546743E+03