*Test runs
ROCKS----1----*----2----*----3----*----4----*----5----*----6----*----7----*----8
basam    02.6500E+031.0000E-011.0000E-211.0000E-211.0000E-212.1000E+008.5000E+02
barri    02.6500E+031.0000E-011.0000E-201.0000E-201.0000E-202.1000E+008.5000E+02
rock1    02.6500E+031.0000E-011.0000E-181.0000E-181.0000E-182.1000E+008.5000E+02
caprk    02.6500E+031.0000E-011.0000E-181.0000E-181.0000E-182.1000E+008.5000E+02
sorrn    02.6500E+031.0000E-011.0000E-171.0000E-171.0000E-172.1000E+008.5000E+02

START----1----*----2----*----3----*----4----*----5----*----6----*----7----*----8
----*----1 MOP: 123456789*123456789*1234 ---*----5----*----6----*----7----*----8
PARAM----1----*----2----*----3----*----4----*----5----*----6----*----7----*----8
  202999    50001000102000020004    2                       
-3.140E+14           3.140E+07                     9.810E+00 3.500E+00          
 1.000E-03                                                  
 1.0000000000000E+07 2.5000000000000E+02 1.0000000000000E+05

MULTI----1----*----2----*----3----*----4----*----5----*----6----*----7----*----8
    1    2    2    6

SOLVR----1----*----2----*----3----*----4----*----5----*----6----*----7----*----8
5  Z4   O4 4.000E-02 1.000E-06          

RPCAP----1----*----2----*----3----*----4----*----5----*----6----*----7----*----8
    3      4.000E-01 3.000E-02                                                  
    1      1.000E+06 0.000E+00 1.000E+00                                        

FOFT ----1----*----2----*----3----*----4----*----5----*----6----*----7----*----8
CA114
CA115
CA118
CA124
CA149
CA151
CA152
DA110
DA116
DA120
DA122
DA126
DA128
DA129
DA146
DA147
EA113
EA123
EA130
EA150
FA111
FA127
FA148
FA153
GA134
GA135
GA139
GA140
HA142
HA143
IA117
IA119
IA121
IA125
IA131
IA133
IA141
IA144
IA145
JA136
JA137
JA138
JA154
KA156
KA157
KA158
KA160
MA155

TIMES----1----*----2----*----3----*----4----*----5----*----6----*----7----*----8
   10   10                    
 1.578E+07 3.156E+07 4.734E+07 6.312E+07 7.889E+07 9.467E+07 1.105E+08 1.262E+08
 1.420E+08 1.578E+08 1.736E+08 1.893E+08 2.051E+08 2.209E+08 2.367E+08 2.525E+08
 2.682E+08 2.840E+08 2.998E+08 3.156E+08 3.314E+08 3.471E+08 3.629E+08 3.787E+08
 3.945E+08 4.102E+08 4.260E+08 4.418E+08 4.576E+08 4.734E+08 4.891E+08 5.049E+08
 5.207E+08 5.365E+08 5.523E+08 5.680E+08 5.838E+08 5.996E+08 6.154E+08 6.312E+08
 6.469E+08 6.627E+08 6.785E+08 6.943E+08 7.100E+08 7.258E+08 7.416E+08 7.574E+08
 7.732E+08 7.889E+08 8.047E+08 8.205E+08 8.363E+08 8.521E+08 8.678E+08 8.836E+08
 8.994E+08 9.152E+08 9.309E+08 9.467E+08 9.625E+08 9.783E+08 9.941E+08 1.010E+09
 1.026E+09 1.041E+09 1.057E+09 1.073E+09 1.089E+09 1.105E+09 1.120E+09 1.136E+09
 1.152E+09 1.168E+09 1.183E+09 1.199E+09 1.215E+09 1.231E+09 1.247E+09 1.262E+09
 1.278E+09 1.294E+09 1.310E+09 1.325E+09 1.341E+09 1.357E+09 1.373E+09 1.389E+09
 1.404E+09 1.420E+09 1.436E+09 1.452E+09 1.467E+09 1.483E+09 1.499E+09 1.515E+09
 1.531E+09 1.546E+09 1.562E+09 1.578E+09

INCON
AA110                         
 0.1462339482819E+08 0.2503801985740E+03
AA111                         
 0.1462351187019E+08 0.2504111185858E+03
AA112                         
 0.1462343534166E+08 0.2503681876077E+03
AA113                         
 0.1462364834900E+08 0.2503881842018E+03
AA114                         
 0.1462322323534E+08 0.2503977306108E+03
AA115                         
 0.1462349134494E+08 0.2503573947527E+03
AA116                         
 0.1462348522039E+08 0.2503584887150E+03
AA117                         
 0.1462329956788E+08 0.2503880400370E+03
AA118                         
 0.1462346207749E+08 0.2503488819801E+03
AA119                         
 0.1462347536073E+08 0.2503640629682E+03
AA120                         
 0.1462354322741E+08 0.2503945094604E+03
AA121                         
 0.1462338545154E+08 0.2503876793872E+03
AA122                         
 0.1462335595465E+08 0.2503771233674E+03
AA123                         
 0.1462345287394E+08 0.2503742821689E+03
AA124                         
 0.1462341340005E+08 0.2503750997573E+03
AA125                         
 0.1462331384425E+08 0.2503802831112E+03
AA126                         
 0.1462342240080E+08 0.2503844963487E+03
AA127                         
 0.1462336875439E+08 0.2503818872989E+03
AA128                         
 0.1462336995767E+08 0.2503679654937E+03
AA129                         
 0.1462338296541E+08 0.2503711674248E+03
AA130                         
 0.1462347646387E+08 0.2503906993587E+03
AA131                         
 0.1462333505410E+08 0.2503735655157E+03
AA132                         
 0.1462344696602E+08 0.2503621147605E+03
AA133                         
 0.1462343266887E+08 0.2503476938645E+03
AA134                         
 0.1462347147482E+08 0.2503497742984E+03
AA135                         
 0.1462346492909E+08 0.2503484062545E+03
AA136                         
 0.1462346451454E+08 0.2503483799352E+03
AA137                         
 0.1462346615463E+08 0.2503485629556E+03
AA138                         
 0.1462320860368E+08 0.2503414292583E+03
AA139                         
 0.1462320406558E+08 0.2503413757304E+03
AA140                         
 0.1462319951084E+08 0.2503413244498E+03
AA141                         
 0.1462368522915E+08 0.2503589599329E+03
AA142                         
 0.1462368563664E+08 0.2503588830072E+03
AA143                         
 0.1462370699806E+08 0.2503606640514E+03
AA144                         
 0.1462368884938E+08 0.2503593013651E+03
AA145                         
 0.1462327948822E+08 0.2503880555002E+03
AA146                         
 0.1462351449882E+08 0.2503802476516E+03
AA147                         
 0.1462344872123E+08 0.2503815885929E+03
AA148                         
 0.1462345036475E+08 0.2503909691138E+03
AA149                         
 0.1462334141031E+08 0.2503848895182E+03
AA150                         
 0.1462330448304E+08 0.2503715583786E+03
AA151                         
 0.1462320972762E+08 0.2503758322980E+03
AA152                         
 0.1462364744590E+08 0.2503540675506E+03
AA153                         
 0.1462370606889E+08 0.2504366570646E+03
AA154                         
 0.1462370030042E+08 0.2504485032282E+03
AA155                         
 0.1462370724240E+08 0.2504375852823E+03
AA156                         
 0.1462361401268E+08 0.2504311887490E+03
AA157                         
 0.1462375543273E+08 0.2504545170265E+03
AA158                         
 0.1462375707398E+08 0.2504549440245E+03
AA159                         
 0.1462375816139E+08 0.2504552202281E+03
AA160                         
 0.1462374956164E+08 0.2503882671503E+03
AA161                         
 0.1462408292956E+08 0.2505468385738E+03
AA162                         
 0.1462437375377E+08 0.2505406340524E+03
AA163                         
 0.1462451854773E+08 0.2505528489023E+03
AA164                         
 0.1462250505368E+08 0.2503960755702E+03
AA165                         
 0.1462255346861E+08 0.2503980070726E+03
AA166                         
 0.1462276479140E+08 0.2504118045396E+03
AA167                         
 0.1462302832262E+08 0.2504348994250E+03
AA168                         
 0.1462340447859E+08 0.2504623756782E+03
AA169                         
 0.1462372804862E+08 0.2504900584509E+03
AA170                         
 0.1462406840180E+08 0.2505140729992E+03
AA171                         
 0.1462431845684E+08 0.2505336971242E+03
AA172                         
 0.1462453402361E+08 0.2505481474784E+03
AA173                         
 0.1462469457837E+08 0.2505582328920E+03
AA174                         
 0.1462469343994E+08 0.2505582175449E+03
AA175                         
 0.1462480482559E+08 0.2505649735729E+03
AA176                         
 0.1462487568687E+08 0.2505693281407E+03
AA177                         
 0.1462491722292E+08 0.2505720534765E+03
AA178                         
 0.1462492775714E+08 0.2505737412205E+03
AA179                         
 0.1462323726135E+08 0.2504647429999E+03
AA180                         
 0.1462303586131E+08 0.2504483218459E+03
AA181                         
 0.1462273480017E+08 0.2504242812944E+03
AA182                         
 0.1462241611927E+08 0.2503976410831E+03
AA183                         
 0.1462220473454E+08 0.2503748707316E+03
AA184                         
 0.1462396234493E+08 0.2505045199459E+03
AA185                         
 0.1462478041883E+08 0.2505628481115E+03
AA186                         
 0.1462422578136E+08 0.2505274149585E+03
AA187                         
 0.1462446952217E+08 0.2505442387439E+03
AA188                         
 0.1462465337434E+08 0.2505558808172E+03
AA189                         
 0.1462477961710E+08 0.2505635609227E+03
AA190                         
 0.1462486058543E+08 0.2505684272638E+03
AA191                         
 0.1462490868562E+08 0.2505713746839E+03
AA192                         
 0.1462493318561E+08 0.2505729917420E+03
AA193                         
 0.1462296423797E+08 0.2504565549222E+03
AA194                         
 0.1462286371215E+08 0.2504369240681E+03
AA195                         
 0.1462253957104E+08 0.2504098830683E+03
AA196                         
 0.1462484486533E+08 0.2505665754477E+03
AA197                         
 0.1462219465258E+08 0.2503799648659E+03
AA198                         
 0.1462197686747E+08 0.2503543498951E+03
AA199                         
 0.1462388993559E+08 0.2504981837261E+03
AA210                         
 0.1462416640426E+08 0.2505233700447E+03
AA211                         
 0.1462442835759E+08 0.2505417640689E+03
AA212                         
 0.1462462700399E+08 0.2505544105546E+03
AA213                         
 0.1462476346094E+08 0.2505626788261E+03
AA214                         
 0.1462485090734E+08 0.2505678465968E+03
AA215                         
 0.1462490300580E+08 0.2505709102466E+03
AA216                         
 0.1462493027597E+08 0.2505725353418E+03
AA217                         
 0.1462489223435E+08 0.2505694659503E+03
AA218                         
 0.1462285170664E+08 0.2504550134985E+03
AA219                         
 0.1462281133312E+08 0.2504339059071E+03
AA220                         
 0.1462248669755E+08 0.2504060829779E+03
AA221                         
 0.1462213990770E+08 0.2503753864219E+03
AA222                         
 0.1462192577557E+08 0.2503491469126E+03
AA223                         
 0.1462387345332E+08 0.2504965912192E+03
AA224                         
 0.1462415109992E+08 0.2505223972988E+03
AA225                         
 0.1462441707182E+08 0.2505412022621E+03
AA226                         
 0.1462461943222E+08 0.2505540943182E+03
AA227                         
 0.1462475860151E+08 0.2505624834140E+03
AA228                         
 0.1462492574103E+08 0.2505716710058E+03
AA229                         
 0.1462484780817E+08 0.2505676843626E+03
AA230                         
 0.1462490099859E+08 0.2505707286668E+03
AA231                         
 0.1462492894854E+08 0.2505723183591E+03
AA232                         
 0.1462286812498E+08 0.2504606313652E+03
AA233                         
 0.1462288663290E+08 0.2504399349265E+03
AA234                         
 0.1462258618854E+08 0.2504137791816E+03
AA235                         
 0.1462226246162E+08 0.2503850471010E+03
AA236                         
 0.1462206131556E+08 0.2503605824201E+03
AA237                         
 0.1462391688110E+08 0.2505001475692E+03
AA238                         
 0.1462418194525E+08 0.2505247232356E+03
AA239                         
 0.1462494828681E+08 0.2505733570157E+03
AA240                         
 0.1462443673964E+08 0.2505426671934E+03
AA241                         
 0.1462463114458E+08 0.2505549801448E+03
AA242                         
 0.1462476510627E+08 0.2505629854211E+03
AA243                         
 0.1462485107326E+08 0.2505679305146E+03
AA244                         
 0.1462490236670E+08 0.2505708052239E+03
AA245                         
 0.1462492934205E+08 0.2505722939521E+03
AA246                         
 0.1462298741938E+08 0.2504723677386E+03
AA247                         
 0.1462307093145E+08 0.2504536375368E+03
AA248                         
 0.1462281523078E+08 0.2504311114934E+03
AA249                         
 0.1462253540040E+08 0.2504065205574E+03
AA250                         
 0.1462496228455E+08 0.2505746739243E+03
AA251                         
 0.1462235962626E+08 0.2503857169210E+03
AA252                         
 0.1462401202255E+08 0.2505080867802E+03
AA253                         
 0.1462425247430E+08 0.2505298740384E+03
AA254                         
 0.1462448296924E+08 0.2505458647624E+03
AA255                         
 0.1462465926732E+08 0.2505568811184E+03
AA256                         
 0.1462478103961E+08 0.2505640580192E+03
AA257                         
 0.1462485930010E+08 0.2505684884717E+03
AA258                         
 0.1462490601787E+08 0.2505710547344E+03
AA259                         
 0.1462493058478E+08 0.2505723771723E+03
AA260                         
 0.1462318100921E+08 0.2504880377107E+03
AA261                         
 0.1462495997513E+08 0.2505759503218E+03
AA262                         
 0.1462332717550E+08 0.2504721714691E+03
AA263                         
 0.1462312732501E+08 0.2504543109273E+03
AA264                         
 0.1462290274644E+08 0.2504349791315E+03
AA265                         
 0.1462275881811E+08 0.2504187943824E+03
AA266                         
 0.1462414266677E+08 0.2505188490677E+03
AA267                         
 0.1462435016654E+08 0.2505368699585E+03
AA268                         
 0.1462454749342E+08 0.2505502035439E+03
AA269                         
 0.1462469862064E+08 0.2505594461076E+03
AA270                         
 0.1462480319144E+08 0.2505654895445E+03
AA271                         
 0.1462487044558E+08 0.2505692221439E+03
AA272                         
 0.1462398338883E+08 0.2505403051590E+03
AA273                         
 0.1462491056484E+08 0.2505713781858E+03
AA274                         
 0.1462493163134E+08 0.2505724844439E+03
AA275                         
 0.1462341783523E+08 0.2505050883247E+03
AA276                         
 0.1462361255046E+08 0.2504922897956E+03
AA277                         
 0.1462347010467E+08 0.2504791781310E+03
AA278                         
 0.1462330173241E+08 0.2504651454986E+03
AA279                         
 0.1462319294019E+08 0.2504535819911E+03
AA280                         
 0.1462428812112E+08 0.2505305859937E+03
AA281                         
 0.1462445993518E+08 0.2505445484662E+03
AA282                         
 0.1462462057775E+08 0.2505549879376E+03
AA283                         
 0.1462436126512E+08 0.2505369613146E+03
AA284                         
 0.1462426082316E+08 0.2505334120590E+03
AA285                         
 0.1462474323173E+08 0.2505622729764E+03
AA286                         
 0.1462482801877E+08 0.2505670528098E+03
AA287                         
 0.1462488244383E+08 0.2505700034103E+03
AA288                         
 0.1462491478628E+08 0.2505717000367E+03
AA289                         
 0.1462493169452E+08 0.2505725651846E+03
AA290                         
 0.1462366783181E+08 0.2505213242208E+03
AA291                         
 0.1462389007303E+08 0.2505112867060E+03
AA292                         
 0.1462379856034E+08 0.2505023327152E+03
AA293                         
 0.1462368314455E+08 0.2504928834823E+03
AA294                         
 0.1462361665347E+08 0.2504851940139E+03
AA295                         
 0.1462422769642E+08 0.2505283209615E+03
AA296                         
 0.1462362126185E+08 0.2504821353023E+03
AA297                         
 0.1462365802930E+08 0.2504840217354E+03
AA298                         
 0.1462374486770E+08 0.2504911483091E+03
AA299                         
 0.1462391097481E+08 0.2505023927875E+03
AA310                         
 0.1462406472898E+08 0.2505157080276E+03
AA311                         
 0.1462427701033E+08 0.2505294540083E+03
AA312                         
 0.1462442162651E+08 0.2505415183826E+03
AA313                         
 0.1462456766962E+08 0.2505518829157E+03
AA314                         
 0.1462469345280E+08 0.2505596095411E+03
AA315                         
 0.1462478773617E+08 0.2505650140885E+03
AA316                         
 0.1462416716792E+08 0.2505232829085E+03
AA317                         
 0.1462485243167E+08 0.2505685616013E+03
AA318                         
 0.1462489364661E+08 0.2505707423224E+03
AA319                         
 0.1462491788572E+08 0.2505719847930E+03
AA320                         
 0.1462493042341E+08 0.2505726115127E+03
AA321                         
 0.1462390564562E+08 0.2505353047774E+03
AA322                         
 0.1462413449598E+08 0.2505274670091E+03
AA323                         
 0.1462408344356E+08 0.2505217797402E+03
AA324                         
 0.1462400935876E+08 0.2505159337384E+03
AA325                         
 0.1462395198267E+08 0.2505114213282E+03
AA326                         
 0.1462393410496E+08 0.2505097540421E+03
AA327                         
 0.1462411528480E+08 0.2505194444852E+03
AA328                         
 0.1462395980527E+08 0.2505114879643E+03
AA329                         
 0.1462403242318E+08 0.2505166219812E+03
AA330                         
 0.1462414777817E+08 0.2505243982006E+03
AA331                         
 0.1462428066279E+08 0.2505335655747E+03
AA332                         
 0.1462442570804E+08 0.2505429039542E+03
AA333                         
 0.1462455437800E+08 0.2505513034080E+03
AA334                         
 0.1462466822954E+08 0.2505583380426E+03
AA335                         
 0.1462476037107E+08 0.2505636797835E+03
AA336                         
 0.1462482821077E+08 0.2505674368592E+03
AA337                         
 0.1462487419712E+08 0.2505698972382E+03
AA338                         
 0.1462409392496E+08 0.2505179265468E+03
AA339                         
 0.1462490299916E+08 0.2505713950703E+03
AA340                         
 0.1462491954012E+08 0.2505722348311E+03
AA341                         
 0.1462492792959E+08 0.2505726508671E+03
AA342                         
 0.1462411288027E+08 0.2505463795465E+03
AA343                         
 0.1462433263136E+08 0.2505401296846E+03
AA344                         
 0.1462431127350E+08 0.2505367777746E+03
AA345                         
 0.1462427094298E+08 0.2505334738758E+03
AA346                         
 0.1462423829415E+08 0.2505311059066E+03
AA347                         
 0.1462422958181E+08 0.2505305145789E+03
AA348                         
 0.1462425210764E+08 0.2505320838433E+03
AA349                         
 0.1462411473191E+08 0.2505193905909E+03
AA350                         
 0.1462430687412E+08 0.2505357558133E+03
AA351                         
 0.1462438783881E+08 0.2505410329469E+03
AA352                         
 0.1462448323278E+08 0.2505471438193E+03
AA353                         
 0.1462458260053E+08 0.2505533018702E+03
AA354                         
 0.1462467454213E+08 0.2505588563749E+03
AA355                         
 0.1462475381830E+08 0.2505634612329E+03
AA356                         
 0.1462481653387E+08 0.2505669605128E+03
AA357                         
 0.1462486191368E+08 0.2505694135576E+03
AA358                         
 0.1462489194341E+08 0.2505710034511E+03
AA359                         
 0.1462491003692E+08 0.2505719554904E+03
AA360                         
 0.1462417818488E+08 0.2505238251624E+03
AA361                         
 0.1462491991957E+08 0.2505724794629E+03
AA362                         
 0.1462492465067E+08 0.2505727337559E+03
AA363                         
 0.1462427847758E+08 0.2505544951834E+03
AA364                         
 0.1462448090477E+08 0.2505492977638E+03
AA365                         
 0.1462447923974E+08 0.2505474872875E+03
AA366                         
 0.1462446307259E+08 0.2505458437242E+03
AA367                         
 0.1462445088731E+08 0.2505448549176E+03
AA368                         
 0.1462445314372E+08 0.2505449783891E+03
AA369                         
 0.1462447493455E+08 0.2505464194650E+03
AA370                         
 0.1462451649253E+08 0.2505491028720E+03
AA371                         
 0.1462427404995E+08 0.2505305656288E+03
AA372                         
 0.1462457356962E+08 0.2505527009518E+03
AA373                         
 0.1462463916558E+08 0.2505567380633E+03
AA374                         
 0.1462470591668E+08 0.2505607318372E+03
AA375                         
 0.1462476735880E+08 0.2505642971295E+03
AA376                         
 0.1462481931823E+08 0.2505672133230E+03
AA377                         
 0.1462485946761E+08 0.2505694021951E+03
AA378                         
 0.1462488758251E+08 0.2505709116851E+03
AA379                         
 0.1462490519303E+08 0.2505718708953E+03
AA380                         
 0.1462491491848E+08 0.2505724407510E+03
AA381                         
 0.1462491967743E+08 0.2505727666171E+03
AA382                         
 0.1462438549372E+08 0.2505385365208E+03
AA383                         
 0.1462492161444E+08 0.2505729295019E+03
AA384                         
 0.1462439746120E+08 0.2505599235020E+03
AA385                         
 0.1462458179854E+08 0.2505553650159E+03
AA386                         
 0.1462459188536E+08 0.2505544915966E+03
AA387                         
 0.1462459106414E+08 0.2505538503125E+03
AA388                         
 0.1462459240224E+08 0.2505536878436E+03
AA389                         
 0.1462460243919E+08 0.2505542413922E+03
AA390                         
 0.1462462413974E+08 0.2505555952563E+03
AA391                         
 0.1462465730360E+08 0.2505576641337E+03
AA392                         
 0.1462469904465E+08 0.2505602207937E+03
AA393                         
 0.1462450937804E+08 0.2505465648018E+03
AA394                         
 0.1462474491430E+08 0.2505629631109E+03
AA395                         
 0.1462479018697E+08 0.2505655955935E+03
AA396                         
 0.1462483086872E+08 0.2505678911798E+03
AA397                         
 0.1462486425738E+08 0.2505697230152E+03
AA398                         
 0.1462488901800E+08 0.2505710598964E+03
AA399                         
 0.1462490522407E+08 0.2505719524779E+03
AA410                         
 0.1462491420852E+08 0.2505725101151E+03
AA411                         
 0.1462491836907E+08 0.2505728733943E+03
AA412                         
 0.1462492016387E+08 0.2505731832662E+03
AA413                         
 0.1462492072305E+08 0.2505733702526E+03
AA414                         
 0.1462432330420E+08 0.2505334970446E+03
AA415                         
 0.1462463183808E+08 0.2505538066419E+03
AA416                         
 0.1462446866863E+08 0.2505630191186E+03
AA417                         
 0.1462464000200E+08 0.2505587988757E+03
AA418                         
 0.1462465617040E+08 0.2505584236339E+03
AA419                         
 0.1462466368972E+08 0.2505583130391E+03
AA420                         
 0.1462467249058E+08 0.2505585862925E+03
AA421                         
 0.1462468691148E+08 0.2505593660028E+03
AA422                         
 0.1462470864148E+08 0.2505606698732E+03
AA423                         
 0.1462473722373E+08 0.2505624063923E+03
AA424                         
 0.1462477049744E+08 0.2505644002213E+03
AA425                         
 0.1462480535209E+08 0.2505664395850E+03
AA426                         
 0.1462473337749E+08 0.2505598739990E+03
AA427                         
 0.1462483856207E+08 0.2505683284694E+03
AA428                         
 0.1462486745203E+08 0.2505699244212E+03
AA429                         
 0.1462489024217E+08 0.2505711550896E+03
AA430                         
 0.1462490615825E+08 0.2505720169018E+03
AA431                         
 0.1462491547004E+08 0.2505725677043E+03
AA432                         
 0.1462491956433E+08 0.2505729198240E+03
AA433                         
 0.1462492101848E+08 0.2505732596345E+03
AA434                         
 0.1462491201310E+08 0.2505745146905E+03
AA435                         
 0.1462490388314E+08 0.2505753632305E+03
AA436                         
 0.1462251438481E+08 0.2503904751460E+03
AA437                         
 0.1462481273429E+08 0.2505646634785E+03
AA438                         
 0.1462259035744E+08 0.2503675944655E+03
AA439                         
 0.1462302066151E+08 0.2503917771872E+03
AA440                         
 0.1462305439742E+08 0.2503962664489E+03
AA441                         
 0.1462327597045E+08 0.2504379705805E+03
AA442                         
 0.1462357879732E+08 0.2504591268878E+03
AA443                         
 0.1462394034168E+08 0.2504962932182E+03
AA444                         
 0.1462229290822E+08 0.2503608540143E+03
AA445                         
 0.1462275704980E+08 0.2503422836743E+03
AA446                         
 0.1462367042599E+08 0.2503605693078E+03
AA447                         
 0.1462334884461E+08 0.2504156156351E+03
AA448                         
 0.1462487164344E+08 0.2505682887227E+03
AA449                         
 0.1462359681039E+08 0.2504455329353E+03
AA450                         
 0.1462385852916E+08 0.2504848667868E+03
AA451                         
 0.1462220640872E+08 0.2503438354417E+03
AA452                         
 0.1462282819774E+08 0.2503332455915E+03
AA453                         
 0.1462336958509E+08 0.2503450588788E+03
AA454                         
 0.1462347906370E+08 0.2504027982372E+03
AA455                         
 0.1462365048398E+08 0.2504404809985E+03
AA456                         
 0.1462381045661E+08 0.2504783242151E+03
AA457                         
 0.1462222213029E+08 0.2503436839016E+03
AA458                         
 0.1462283312697E+08 0.2503423698114E+03
AA459                         
 0.1462491323200E+08 0.2505709665815E+03
AA460                         
 0.1462338261044E+08 0.2503448456703E+03
AA461                         
 0.1462367162434E+08 0.2503698823149E+03
AA462                         
 0.1462360756105E+08 0.2504020808150E+03
AA463                         
 0.1462371659781E+08 0.2504451188437E+03
AA464                         
 0.1462382067587E+08 0.2504782146534E+03
AA465                         
 0.1462235822383E+08 0.2503603737172E+03
AA466                         
 0.1462287849269E+08 0.2503673513690E+03
AA467                         
 0.1462389557484E+08 0.2503615124582E+03
AA468                         
 0.1462393807542E+08 0.2503941786208E+03
AA469                         
 0.1462369123959E+08 0.2504140150309E+03
AA470                         
 0.1462494106027E+08 0.2505729217373E+03
AA471                         
 0.1462377209936E+08 0.2504582904222E+03
AA472                         
 0.1462388508998E+08 0.2504845760700E+03
AA473                         
 0.1462264480815E+08 0.2503897336802E+03
AA474                         
 0.1462306042679E+08 0.2504023732599E+03
AA475                         
 0.1462323220491E+08 0.2503911161729E+03
AA476                         
 0.1462367060137E+08 0.2504259638657E+03
AA477                         
 0.1462366741044E+08 0.2504370702339E+03
AA478                         
 0.1462385117026E+08 0.2504767363827E+03
AA479                         
 0.1462399310096E+08 0.2504959716435E+03
AA480                         
 0.1462303194980E+08 0.2504253359150E+03
AA481                         
 0.1462495840852E+08 0.2505743216278E+03
AA482                         
 0.1462331484628E+08 0.2504404644090E+03
AA483                         
 0.1462334413733E+08 0.2504274343396E+03
AA484                         
 0.1462359438188E+08 0.2504589947333E+03
AA485                         
 0.1462372364436E+08 0.2504635585613E+03
AA486                         
 0.1462397958741E+08 0.2504978771309E+03
AA487                         
 0.1462413157398E+08 0.2505102363334E+03
AA488                         
 0.1462347085259E+08 0.2504609435357E+03
AA489                         
 0.1462360678004E+08 0.2504760347737E+03
AA490                         
 0.1462358931531E+08 0.2504634769106E+03
AA491                         
 0.1462382688608E+08 0.2504898415438E+03
AA492                         
 0.1462496767939E+08 0.2505752389894E+03
AA493                         
 0.1462390235148E+08 0.2504904841341E+03
AA494                         
 0.1462418890709E+08 0.2505177246768E+03
AA495                         
 0.1462428109075E+08 0.2505250622676E+03
AA496                         
 0.1462383282460E+08 0.2505294999517E+03
AA497                         
 0.1462407754730E+08 0.2505214484663E+03
AA498                         
 0.1462429044173E+08 0.2505310006116E+03
AA499                         
 0.1462400894197E+08 0.2505139447607E+03
AA510                         
 0.1462391034519E+08 0.2505062104063E+03
AA511                         
 0.1462382654894E+08 0.2505000614523E+03
AA512                         
 0.1462378765735E+08 0.2504972493021E+03
AA513                         
 0.1462381048908E+08 0.2504988137078E+03
AA514                         
 0.1462389647050E+08 0.2505047632566E+03
AA515                         
 0.1462403183059E+08 0.2505141031800E+03
AA516                         
 0.1462419454905E+08 0.2505252279928E+03
AA517                         
 0.1462436381891E+08 0.2505364846068E+03
AA518                         
 0.1462452155781E+08 0.2505466357495E+03
AA519                         
 0.1462427953800E+08 0.2505302348374E+03
AA520                         
 0.1462465506139E+08 0.2505550464230E+03
AA521                         
 0.1462476025176E+08 0.2505615695834E+03
AA522                         
 0.1462483819401E+08 0.2505663883707E+03
AA523                         
 0.1462489283416E+08 0.2505698349279E+03
AA524                         
 0.1462492905158E+08 0.2505722471605E+03