*Test runs
ROCKS----1----*----2----*----3----*----4----*----5----*----6----*----7----*----8
rock1    02.6500E+031.0000E-011.0000E-151.0000E-151.0000E-152.1000E+008.5000E+02
rock2    02.6500E+031.0000E-011.0000E-151.0000E-151.0000E-152.1000E+008.5000E+02
rock3    02.6500E+031.0000E-011.0000E-151.0000E-151.0000E-152.1000E+008.5000E+02
rock4    02.6500E+031.0000E-011.0000E-151.0000E-151.0000E-152.1000E+008.5000E+02

START----1----*----2----*----3----*----4----*----5----*----6----*----7----*----8
----*----1 MOP: 123456789*123456789*1234 ---*----5----*----6----*----7----*----8
PARAM----1----*----2----*----3----*----4----*----5----*----6----*----7----*----8
  -12999    50001000102000020004    2                       
 0.000E+00           1.000E+00                     9.810E+00 3.500E+00          
 1.000E-04 1.000E+00                                        
 1.0000000000000E+07 2.5000000000000E+02 1.0000000000000E+05

MULTI----1----*----2----*----3----*----4----*----5----*----6----*----7----*----8
    1    2    2    6

SOLVR----1----*----2----*----3----*----4----*----5----*----6----*----7----*----8
5  Z4   O4 4.000E-02 1.000E-06          

RPCAP----1----*----2----*----3----*----4----*----5----*----6----*----7----*----8
    3      4.000E-01 3.000E-02                                                  
    1      1.000E+06 0.000E+00 1.000E+00                                        

FOFT----1----*----2----*----3----*----4----*----5----*----6----*----7----*----8
AA110
BA110
CA110
DA110
EA110
FA110
GA110
HA110
IA110
JA110
KA110
LA110
MA110
NA110
OA110
AA111
BA111
CA111
DA111
EA111
FA111
GA111
HA111
IA111
JA111
KA111
LA111
MA111
NA111
OA111
AA113
BA113
CA113
DA113
EA113
FA113
GA113
HA113
IA113
JA113
KA113
LA113
MA113
NA113
OA113
AA114
BA114
CA114
DA114
EA114
FA114
GA114
HA114
IA114
JA114
KA114
LA114
MA114
NA114
OA114
AA115
BA115
CA115
DA115
EA115
FA115
GA115
HA115
IA115
JA115
KA115
LA115
MA115
NA115
OA115
AA116
BA116
CA116
DA116
EA116
FA116
GA116
HA116
IA116
JA116
KA116
LA116
MA116
NA116
OA116
AA117
BA117
CA117
DA117
EA117
FA117
GA117
HA117
IA117
JA117
KA117
LA117
MA117
NA117
OA117
AA118
BA118
CA118
DA118
EA118
FA118
GA118
HA118
IA118
JA118
KA118
LA118
MA118
NA118
OA118
AA119
BA119
CA119
DA119
EA119
FA119
GA119
HA119
IA119
JA119
KA119
LA119
MA119
NA119
OA119
AA120
BA120
CA120
DA120
EA120
FA120
GA120
HA120
IA120
JA120
KA120
LA120
MA120
NA120
OA120
AA121
BA121
CA121
DA121
EA121
FA121
GA121
HA121
IA121
JA121
KA121
LA121
MA121
NA121
OA121
AA122
BA122
CA122
DA122
EA122
FA122
GA122
HA122
IA122
JA122
KA122
LA122
MA122
NA122
OA122
AA123
BA123
CA123
DA123
EA123
FA123
GA123
HA123
IA123
JA123
KA123
LA123
MA123
NA123
OA123
AA124
BA124
CA124
DA124
EA124
FA124
GA124
HA124
IA124
JA124
KA124
LA124
MA124
NA124
OA124
AA125
BA125
CA125
DA125
EA125
FA125
GA125
HA125
IA125
JA125
KA125
LA125
MA125
NA125
OA125
AA126
BA126
CA126
DA126
EA126
FA126
GA126
HA126
IA126
JA126
KA126
LA126
MA126
NA126
OA126
AA127
BA127
CA127
DA127
EA127
FA127
GA127
HA127
IA127
JA127
KA127
LA127
MA127
NA127
OA127
AA128
BA128
CA128
DA128
EA128
FA128
GA128
HA128
IA128
JA128
KA128
LA128
MA128
NA128
OA128
AA129
BA129
CA129
DA129
EA129
FA129
GA129
HA129
IA129
JA129
KA129
LA129
MA129
NA129
OA129
AA130
BA130
CA130
DA130
EA130
FA130
GA130
HA130
IA130
JA130
KA130
LA130
MA130
NA130
OA130
AA131
BA131
CA131
DA131
EA131
FA131
GA131
HA131
IA131
JA131
KA131
LA131
MA131
NA131
OA131
AA133
BA133
CA133
DA133
EA133
FA133
GA133
HA133
IA133
JA133
KA133
LA133
MA133
NA133
OA133
AA134
BA134
CA134
DA134
EA134
FA134
GA134
HA134
IA134
JA134
KA134
LA134
MA134
NA134
OA134
AA135
BA135
CA135
DA135
EA135
FA135
GA135
HA135
IA135
JA135
KA135
LA135
MA135
NA135
OA135
AA136
BA136
CA136
DA136
EA136
FA136
GA136
HA136
IA136
JA136
KA136
LA136
MA136
NA136
OA136
AA137
BA137
CA137
DA137
EA137
FA137
GA137
HA137
IA137
JA137
KA137
LA137
MA137
NA137
OA137
AA138
BA138
CA138
DA138
EA138
FA138
GA138
HA138
IA138
JA138
KA138
LA138
MA138
NA138
OA138
AA139
BA139
CA139
DA139
EA139
FA139
GA139
HA139
IA139
JA139
KA139
LA139
MA139
NA139
OA139
AA140
BA140
CA140
DA140
EA140
FA140
GA140
HA140
IA140
JA140
KA140
LA140
MA140
NA140
OA140
AA141
BA141
CA141
DA141
EA141
FA141
GA141
HA141
IA141
JA141
KA141
LA141
MA141
NA141
OA141
AA142
BA142
CA142
DA142
EA142
FA142
GA142
HA142
IA142
JA142
KA142
LA142
MA142
NA142
OA142
AA143
BA143
CA143
DA143
EA143
FA143
GA143
HA143
IA143
JA143
KA143
LA143
MA143
NA143
OA143
AA144
BA144
CA144
DA144
EA144
FA144
GA144
HA144
IA144
JA144
KA144
LA144
MA144
NA144
OA144
AA145
BA145
CA145
DA145
EA145
FA145
GA145
HA145
IA145
JA145
KA145
LA145
MA145
NA145
OA145
AA146
BA146
CA146
DA146
EA146
FA146
GA146
HA146
IA146
JA146
KA146
LA146
MA146
NA146
OA146
AA147
BA147
CA147
DA147
EA147
FA147
GA147
HA147
IA147
JA147
KA147
LA147
MA147
NA147
OA147
AA148
BA148
CA148
DA148
EA148
FA148
GA148
HA148
IA148
JA148
KA148
LA148
MA148
NA148
OA148
AA149
BA149
CA149
DA149
EA149
FA149
GA149
HA149
IA149
JA149
KA149
LA149
MA149
NA149
OA149
AA150
BA150
CA150
DA150
EA150
FA150
GA150
HA150
IA150
JA150
KA150
LA150
MA150
NA150
OA150
AA151
BA151
CA151
DA151
EA151
FA151
GA151
HA151
IA151
JA151
KA151
LA151
MA151
NA151
OA151
AA152
BA152
CA152
DA152
EA152
FA152
GA152
HA152
IA152
JA152
KA152
LA152
MA152
NA152
OA152
AA153
BA153
CA153
DA153
EA153
FA153
GA153
HA153
IA153
JA153
KA153
LA153
MA153
NA153
OA153
AA154
BA154
CA154
DA154
EA154
FA154
GA154
HA154
IA154
JA154
KA154
LA154
MA154
NA154
OA154
AA155
BA155
CA155
DA155
EA155
FA155
GA155
HA155
IA155
JA155
KA155
LA155
MA155
NA155
OA155
AA156
BA156
CA156
DA156
EA156
FA156
GA156
HA156
IA156
JA156
KA156
LA156
MA156
NA156
OA156
AA157
BA157
CA157
DA157
EA157
FA157
GA157
HA157
IA157
JA157
KA157
LA157
MA157
NA157
OA157
AA158
BA158
CA158
DA158
EA158
FA158
GA158
HA158
IA158
JA158
KA158
LA158
MA158
NA158
OA158
AA160
BA160
CA160
DA160
EA160
FA160
GA160
HA160
IA160
JA160
KA160
LA160
MA160
NA160
OA160

ELEME----1----*----2----*----3----*----4----*----5----*----6----*----7----*----8
AA110          rock1 3.083E+06                     4.122E+05 3.107E+05 5.500E+02
AA111          rock1 4.147E+07                     4.123E+05 3.116E+05 5.500E+02
AA112          rock1 3.850E+07                     4.118E+05 3.115E+05 5.500E+02
AA113          rock1 1.113E+07                     4.125E+05 3.104E+05 5.500E+02
AA114          rock1 4.299E+07                     4.137E+05 3.109E+05 5.500E+02
AA115          rock1 3.328E+07                     4.113E+05 3.108E+05 5.500E+02
AA116          rock1 8.738E+06                     4.121E+05 3.099E+05 5.500E+02
AA117          rock1 1.606E+07                     4.120E+05 3.098E+05 5.500E+02
AA118          rock1 9.085E+06                     4.117E+05 3.108E+05 5.500E+02
AA119          rock1 2.292E+07                     4.129E+05 3.097E+05 5.500E+02
AA120          rock1 1.336E+07                     4.128E+05 3.103E+05 5.500E+02
AA121          rock1 2.888E+07                     4.129E+05 3.112E+05 5.500E+02
AA122          rock1 1.249E+07                     4.121E+05 3.110E+05 5.500E+02
AA123          rock1 2.939E+06                     4.121E+05 3.106E+05 5.500E+02
AA124          rock1 7.330E+06                     4.126E+05 3.106E+05 5.500E+02
AA125          rock1 4.241E+06                     4.124E+05 3.106E+05 5.500E+02
AA126          rock1 5.767E+06                     4.119E+05 3.106E+05 5.500E+02
AA127          rock1 3.951E+06                     4.123E+05 3.109E+05 5.500E+02
AA128          rock1 2.541E+06                     4.121E+05 3.108E+05 5.500E+02
AA129          rock1 5.909E+06                     4.121E+05 3.103E+05 5.500E+02
AA130          rock1 5.109E+06                     4.122E+05 3.105E+05 5.500E+02
AA131          rock1 1.050E+07                     4.125E+05 3.111E+05 5.500E+02
AA132          rock1 3.151E+07                     4.129E+05 3.107E+05 5.500E+02
AA133          rock1 3.037E+06                     4.120E+05 3.105E+05 5.500E+02
AA134          rock1 1.015E+07                     4.120E+05 3.101E+05 5.500E+02
AA135          rock1 8.468E+06                     4.122E+05 3.097E+05 5.500E+02
AA136          rock1 2.236E+07                     4.129E+05 3.101E+05 5.500E+02
AA137          rock1 1.155E+07                     4.124E+05 3.096E+05 5.500E+02
AA138          rock1 1.338E+07                     4.126E+05 3.098E+05 5.500E+02
AA139          rock1 2.539E+07                     4.122E+05 3.091E+05 5.500E+02
AA140          rock1 1.096E+07                     4.123E+05 3.092E+05 5.500E+02
AA141          rock1 3.619E+07                     4.124E+05 3.089E+05 5.500E+02
AA142          rock1 2.673E+07                     4.140E+05 3.099E+05 5.500E+02
AA143          rock1 3.556E+07                     4.140E+05 3.094E+05 5.500E+02
AA144          rock1 2.986E+07                     4.136E+05 3.100E+05 5.500E+02
AA145          rock1 1.534E+07                     4.139E+05 3.102E+05 5.500E+02
AA146          rock1 8.784E+06                     4.116E+05 3.107E+05 5.500E+02
AA147          rock1 6.603E+06                     4.125E+05 3.108E+05 5.500E+02
AA148          rock1 5.908E+06                     4.124E+05 3.111E+05 5.500E+02
AA149          rock1 5.435E+06                     4.119E+05 3.108E+05 5.500E+02
AA150          rock1 9.593E+06                     4.119E+05 3.103E+05 5.500E+02
AA151          rock1 3.834E+07                     4.115E+05 3.103E+05 5.500E+02
AA152          rock1 3.403E+07                     4.116E+05 3.094E+05 5.500E+02
AA153          rock1 3.558E+07                     4.155E+05 3.116E+05 5.500E+02
AA154          rock1 3.877E+07                     4.149E+05 3.118E+05 5.500E+02
AA155          rock1 5.221E+07                     4.157E+05 3.107E+05 5.500E+02
AA156          rock1 1.587E+07                     4.150E+05 3.122E+05 5.500E+02
AA157          rock1 2.073E+07                     4.153E+05 3.121E+05 5.500E+02
AA158          rock1 3.723E+07                     4.155E+05 3.125E+05 5.500E+02
AA159          rock1 5.037E+07                     4.167E+05 3.095E+05 5.500E+02
AA160          rock1 4.305E+07                     4.144E+05 3.106E+05 5.500E+02
AA161          rock1 2.250E+08                     4.050E+05 3.030E+05 5.500E+02
AA162          rock1 1.500E+08                     4.050E+05 3.040E+05 5.500E+02
AA163          rock1 1.500E+08                     4.050E+05 3.130E+05 5.500E+02
AA164          rock1 8.000E+07                     4.100E+05 3.080E+05 5.500E+02
AA165          rock1 7.500E+07                     4.100E+05 3.090E+05 5.500E+02
AA166          rock1 8.000E+07                     4.100E+05 3.100E+05 5.500E+02
AA167          rock1 7.500E+07                     4.100E+05 3.110E+05 5.500E+02
AA168          rock1 8.000E+07                     4.100E+05 3.120E+05 5.500E+02
AA169          rock1 7.500E+07                     4.100E+05 3.130E+05 5.500E+02
AA170          rock1 8.594E+07                     4.100E+05 3.140E+05 5.500E+02
AA171          rock1 1.000E+08                     4.100E+05 3.150E+05 5.500E+02
AA172          rock1 1.000E+08                     4.100E+05 3.160E+05 5.500E+02
AA173          rock1 1.000E+08                     4.100E+05 3.170E+05 5.500E+02
AA174          rock1 1.500E+08                     4.050E+05 3.140E+05 5.500E+02
AA175          rock1 1.000E+08                     4.100E+05 3.180E+05 5.500E+02
AA176          rock1 1.000E+08                     4.100E+05 3.190E+05 5.500E+02
AA177          rock1 1.000E+08                     4.100E+05 3.200E+05 5.500E+02
AA178          rock1 1.500E+08                     4.100E+05 3.210E+05 5.500E+02
AA179          rock1 1.500E+08                     4.110E+05 3.030E+05 5.500E+02
AA180          rock1 1.000E+08                     4.110E+05 3.040E+05 5.500E+02
AA181          rock1 1.000E+08                     4.110E+05 3.050E+05 5.500E+02
AA182          rock1 1.000E+08                     4.110E+05 3.060E+05 5.500E+02
AA183          rock1 7.000E+07                     4.110E+05 3.070E+05 5.500E+02
AA184          rock1 8.000E+07                     4.110E+05 3.140E+05 5.500E+02
AA185          rock1 1.500E+08                     4.050E+05 3.150E+05 5.500E+02
AA186          rock1 1.000E+08                     4.110E+05 3.150E+05 5.500E+02
AA187          rock1 1.000E+08                     4.110E+05 3.160E+05 5.500E+02
AA188          rock1 1.000E+08                     4.110E+05 3.170E+05 5.500E+02
AA189          rock1 1.000E+08                     4.110E+05 3.180E+05 5.500E+02
AA190          rock1 1.000E+08                     4.110E+05 3.190E+05 5.500E+02
AA191          rock1 1.000E+08                     4.110E+05 3.200E+05 5.500E+02
AA192          rock1 1.500E+08                     4.110E+05 3.210E+05 5.500E+02
AA193          rock1 1.500E+08                     4.120E+05 3.030E+05 5.500E+02
AA194          rock1 1.000E+08                     4.120E+05 3.040E+05 5.500E+02
AA195          rock1 1.000E+08                     4.120E+05 3.050E+05 5.500E+02
AA196          rock1 1.500E+08                     4.050E+05 3.160E+05 5.500E+02
AA197          rock1 1.000E+08                     4.120E+05 3.060E+05 5.500E+02
AA198          rock1 7.000E+07                     4.120E+05 3.070E+05 5.500E+02
AA199          rock1 8.000E+07                     4.120E+05 3.140E+05 5.500E+02
AA210          rock1 1.000E+08                     4.120E+05 3.150E+05 5.500E+02
AA211          rock1 1.000E+08                     4.120E+05 3.160E+05 5.500E+02
AA212          rock1 1.000E+08                     4.120E+05 3.170E+05 5.500E+02
AA213          rock1 1.000E+08                     4.120E+05 3.180E+05 5.500E+02
AA214          rock1 1.000E+08                     4.120E+05 3.190E+05 5.500E+02
AA215          rock1 1.000E+08                     4.120E+05 3.200E+05 5.500E+02
AA216          rock1 1.500E+08                     4.120E+05 3.210E+05 5.500E+02
AA217          rock1 1.500E+08                     4.050E+05 3.170E+05 5.500E+02
AA218          rock1 1.500E+08                     4.130E+05 3.030E+05 5.500E+02
AA219          rock1 1.000E+08                     4.130E+05 3.040E+05 5.500E+02
AA220          rock1 1.000E+08                     4.130E+05 3.050E+05 5.500E+02
AA221          rock1 1.000E+08                     4.130E+05 3.060E+05 5.500E+02
AA222          rock1 7.000E+07                     4.130E+05 3.070E+05 5.500E+02
AA223          rock1 8.000E+07                     4.130E+05 3.140E+05 5.500E+02
AA224          rock1 1.000E+08                     4.130E+05 3.150E+05 5.500E+02
AA225          rock1 1.000E+08                     4.130E+05 3.160E+05 5.500E+02
AA226          rock1 1.000E+08                     4.130E+05 3.170E+05 5.500E+02
AA227          rock1 1.000E+08                     4.130E+05 3.180E+05 5.500E+02
AA228          rock1 1.500E+08                     4.050E+05 3.180E+05 5.500E+02
AA229          rock1 1.000E+08                     4.130E+05 3.190E+05 5.500E+02
AA230          rock1 1.000E+08                     4.130E+05 3.200E+05 5.500E+02
AA231          rock1 1.500E+08                     4.130E+05 3.210E+05 5.500E+02
AA232          rock1 1.500E+08                     4.140E+05 3.030E+05 5.500E+02
AA233          rock1 1.000E+08                     4.140E+05 3.040E+05 5.500E+02
AA234          rock1 1.000E+08                     4.140E+05 3.050E+05 5.500E+02
AA235          rock1 1.000E+08                     4.140E+05 3.060E+05 5.500E+02
AA236          rock1 7.000E+07                     4.140E+05 3.070E+05 5.500E+02
AA237          rock1 8.000E+07                     4.140E+05 3.140E+05 5.500E+02
AA238          rock1 1.000E+08                     4.140E+05 3.150E+05 5.500E+02
AA239          rock1 1.500E+08                     4.050E+05 3.190E+05 5.500E+02
AA240          rock1 1.000E+08                     4.140E+05 3.160E+05 5.500E+02
AA241          rock1 1.000E+08                     4.140E+05 3.170E+05 5.500E+02
AA242          rock1 1.000E+08                     4.140E+05 3.180E+05 5.500E+02
AA243          rock1 1.000E+08                     4.140E+05 3.190E+05 5.500E+02
AA244          rock1 1.000E+08                     4.140E+05 3.200E+05 5.500E+02
AA245          rock1 1.500E+08                     4.140E+05 3.210E+05 5.500E+02
AA246          rock1 1.500E+08                     4.150E+05 3.030E+05 5.500E+02
AA247          rock1 1.000E+08                     4.150E+05 3.040E+05 5.500E+02
AA248          rock1 1.000E+08                     4.150E+05 3.050E+05 5.500E+02
AA249          rock1 1.000E+08                     4.150E+05 3.060E+05 5.500E+02
AA250          rock1 1.500E+08                     4.050E+05 3.200E+05 5.500E+02
AA251          rock1 7.000E+07                     4.150E+05 3.070E+05 5.500E+02
AA252          rock1 8.000E+07                     4.150E+05 3.140E+05 5.500E+02
AA253          rock1 1.000E+08                     4.150E+05 3.150E+05 5.500E+02
AA254          rock1 1.000E+08                     4.150E+05 3.160E+05 5.500E+02
AA255          rock1 1.000E+08                     4.150E+05 3.170E+05 5.500E+02
AA256          rock1 1.000E+08                     4.150E+05 3.180E+05 5.500E+02
AA257          rock1 1.000E+08                     4.150E+05 3.190E+05 5.500E+02
AA258          rock1 1.000E+08                     4.150E+05 3.200E+05 5.500E+02
AA259          rock1 1.500E+08                     4.150E+05 3.210E+05 5.500E+02
AA260          rock1 1.500E+08                     4.160E+05 3.030E+05 5.500E+02
AA261          rock1 2.250E+08                     4.050E+05 3.210E+05 5.500E+02
AA262          rock1 1.000E+08                     4.160E+05 3.040E+05 5.500E+02
AA263          rock1 1.000E+08                     4.160E+05 3.050E+05 5.500E+02
AA264          rock1 1.000E+08                     4.160E+05 3.060E+05 5.500E+02
AA265          rock1 7.000E+07                     4.160E+05 3.070E+05 5.500E+02
AA266          rock1 8.000E+07                     4.160E+05 3.140E+05 5.500E+02
AA267          rock1 1.000E+08                     4.160E+05 3.150E+05 5.500E+02
AA268          rock1 1.000E+08                     4.160E+05 3.160E+05 5.500E+02
AA269          rock1 1.000E+08                     4.160E+05 3.170E+05 5.500E+02
AA270          rock1 1.000E+08                     4.160E+05 3.180E+05 5.500E+02
AA271          rock1 1.000E+08                     4.160E+05 3.190E+05 5.500E+02
AA272          rock1 1.500E+08                     4.060E+05 3.030E+05 5.500E+02
AA273          rock1 1.000E+08                     4.160E+05 3.200E+05 5.500E+02
AA274          rock1 1.500E+08                     4.160E+05 3.210E+05 5.500E+02
AA275          rock1 1.500E+08                     4.170E+05 3.030E+05 5.500E+02
AA276          rock1 1.000E+08                     4.170E+05 3.040E+05 5.500E+02
AA277          rock1 1.000E+08                     4.170E+05 3.050E+05 5.500E+02
AA278          rock1 1.000E+08                     4.170E+05 3.060E+05 5.500E+02
AA279          rock1 7.000E+07                     4.170E+05 3.070E+05 5.500E+02
AA280          rock1 8.000E+07                     4.170E+05 3.140E+05 5.500E+02
AA281          rock1 1.000E+08                     4.170E+05 3.150E+05 5.500E+02
AA282          rock1 1.000E+08                     4.170E+05 3.160E+05 5.500E+02
AA283          rock1 1.500E+08                     4.050E+05 3.050E+05 5.500E+02
AA284          rock1 1.000E+08                     4.060E+05 3.040E+05 5.500E+02
AA285          rock1 1.000E+08                     4.170E+05 3.170E+05 5.500E+02
AA286          rock1 1.000E+08                     4.170E+05 3.180E+05 5.500E+02
AA287          rock1 1.000E+08                     4.170E+05 3.190E+05 5.500E+02
AA288          rock1 1.000E+08                     4.170E+05 3.200E+05 5.500E+02
AA289          rock1 1.500E+08                     4.170E+05 3.210E+05 5.500E+02
AA290          rock1 1.500E+08                     4.180E+05 3.030E+05 5.500E+02
AA291          rock1 1.000E+08                     4.180E+05 3.040E+05 5.500E+02
AA292          rock1 1.000E+08                     4.180E+05 3.050E+05 5.500E+02
AA293          rock1 1.000E+08                     4.180E+05 3.060E+05 5.500E+02
AA294          rock1 9.096E+07                     4.180E+05 3.070E+05 5.500E+02
AA295          rock1 1.000E+08                     4.060E+05 3.050E+05 5.500E+02
AA296          rock1 6.944E+07                     4.180E+05 3.080E+05 5.500E+02
AA297          rock1 7.455E+07                     4.180E+05 3.090E+05 5.500E+02
AA298          rock1 6.944E+07                     4.180E+05 3.100E+05 5.500E+02
AA299          rock1 7.455E+07                     4.180E+05 3.110E+05 5.500E+02
AA310          rock1 6.944E+07                     4.180E+05 3.120E+05 5.500E+02
AA311          rock1 7.455E+07                     4.180E+05 3.130E+05 5.500E+02
AA312          rock1 9.397E+07                     4.180E+05 3.140E+05 5.500E+02
AA313          rock1 1.000E+08                     4.180E+05 3.150E+05 5.500E+02
AA314          rock1 1.000E+08                     4.180E+05 3.160E+05 5.500E+02
AA315          rock1 1.000E+08                     4.180E+05 3.170E+05 5.500E+02
AA316          rock1 1.000E+08                     4.060E+05 3.060E+05 5.500E+02
AA317          rock1 1.000E+08                     4.180E+05 3.180E+05 5.500E+02
AA318          rock1 1.000E+08                     4.180E+05 3.190E+05 5.500E+02
AA319          rock1 1.000E+08                     4.180E+05 3.200E+05 5.500E+02
AA320          rock1 1.500E+08                     4.180E+05 3.210E+05 5.500E+02
AA321          rock1 1.500E+08                     4.190E+05 3.030E+05 5.500E+02
AA322          rock1 1.000E+08                     4.190E+05 3.040E+05 5.500E+02
AA323          rock1 1.000E+08                     4.190E+05 3.050E+05 5.500E+02
AA324          rock1 1.000E+08                     4.190E+05 3.060E+05 5.500E+02
AA325          rock1 1.000E+08                     4.190E+05 3.070E+05 5.500E+02
AA326          rock1 1.000E+08                     4.190E+05 3.080E+05 5.500E+02
AA327          rock1 1.000E+08                     4.060E+05 3.070E+05 5.500E+02
AA328          rock1 1.000E+08                     4.190E+05 3.090E+05 5.500E+02
AA329          rock1 1.000E+08                     4.190E+05 3.100E+05 5.500E+02
AA330          rock1 1.000E+08                     4.190E+05 3.110E+05 5.500E+02
AA331          rock1 1.000E+08                     4.190E+05 3.120E+05 5.500E+02
AA332          rock1 1.000E+08                     4.190E+05 3.130E+05 5.500E+02
AA333          rock1 1.000E+08                     4.190E+05 3.140E+05 5.500E+02
AA334          rock1 1.000E+08                     4.190E+05 3.150E+05 5.500E+02
AA335          rock1 1.000E+08                     4.190E+05 3.160E+05 5.500E+02
AA336          rock1 1.000E+08                     4.190E+05 3.170E+05 5.500E+02
AA337          rock1 1.000E+08                     4.190E+05 3.180E+05 5.500E+02
AA338          rock1 1.000E+08                     4.060E+05 3.080E+05 5.500E+02
AA339          rock1 1.000E+08                     4.190E+05 3.190E+05 5.500E+02
AA340          rock1 1.000E+08                     4.190E+05 3.200E+05 5.500E+02
AA341          rock1 1.500E+08                     4.190E+05 3.210E+05 5.500E+02
AA342          rock1 1.500E+08                     4.200E+05 3.030E+05 5.500E+02
AA343          rock1 1.000E+08                     4.200E+05 3.040E+05 5.500E+02
AA344          rock1 1.000E+08                     4.200E+05 3.050E+05 5.500E+02
AA345          rock1 1.000E+08                     4.200E+05 3.060E+05 5.500E+02
AA346          rock1 1.000E+08                     4.200E+05 3.070E+05 5.500E+02
AA347          rock1 1.000E+08                     4.200E+05 3.080E+05 5.500E+02
AA348          rock1 1.000E+08                     4.200E+05 3.090E+05 5.500E+02
AA349          rock1 1.000E+08                     4.060E+05 3.090E+05 5.500E+02
AA350          rock1 1.000E+08                     4.200E+05 3.100E+05 5.500E+02
AA351          rock1 1.000E+08                     4.200E+05 3.110E+05 5.500E+02
AA352          rock1 1.000E+08                     4.200E+05 3.120E+05 5.500E+02
AA353          rock1 1.000E+08                     4.200E+05 3.130E+05 5.500E+02
AA354          rock1 1.000E+08                     4.200E+05 3.140E+05 5.500E+02
AA355          rock1 1.000E+08                     4.200E+05 3.150E+05 5.500E+02
AA356          rock1 1.000E+08                     4.200E+05 3.160E+05 5.500E+02
AA357          rock1 1.000E+08                     4.200E+05 3.170E+05 5.500E+02
AA358          rock1 1.000E+08                     4.200E+05 3.180E+05 5.500E+02
AA359          rock1 1.000E+08                     4.200E+05 3.190E+05 5.500E+02
AA360          rock1 1.000E+08                     4.060E+05 3.100E+05 5.500E+02
AA361          rock1 1.000E+08                     4.200E+05 3.200E+05 5.500E+02
AA362          rock1 1.500E+08                     4.200E+05 3.210E+05 5.500E+02
AA363          rock1 1.500E+08                     4.210E+05 3.030E+05 5.500E+02
AA364          rock1 1.000E+08                     4.210E+05 3.040E+05 5.500E+02
AA365          rock1 1.000E+08                     4.210E+05 3.050E+05 5.500E+02
AA366          rock1 1.000E+08                     4.210E+05 3.060E+05 5.500E+02
AA367          rock1 1.000E+08                     4.210E+05 3.070E+05 5.500E+02
AA368          rock1 1.000E+08                     4.210E+05 3.080E+05 5.500E+02
AA369          rock1 1.000E+08                     4.210E+05 3.090E+05 5.500E+02
AA370          rock1 1.000E+08                     4.210E+05 3.100E+05 5.500E+02
AA371          rock1 1.000E+08                     4.060E+05 3.110E+05 5.500E+02
AA372          rock1 1.000E+08                     4.210E+05 3.110E+05 5.500E+02
AA373          rock1 1.000E+08                     4.210E+05 3.120E+05 5.500E+02
AA374          rock1 1.000E+08                     4.210E+05 3.130E+05 5.500E+02
AA375          rock1 1.000E+08                     4.210E+05 3.140E+05 5.500E+02
AA376          rock1 1.000E+08                     4.210E+05 3.150E+05 5.500E+02
AA377          rock1 1.000E+08                     4.210E+05 3.160E+05 5.500E+02
AA378          rock1 1.000E+08                     4.210E+05 3.170E+05 5.500E+02
AA379          rock1 1.000E+08                     4.210E+05 3.180E+05 5.500E+02
AA380          rock1 1.000E+08                     4.210E+05 3.190E+05 5.500E+02
AA381          rock1 1.000E+08                     4.210E+05 3.200E+05 5.500E+02
AA382          rock1 1.000E+08                     4.060E+05 3.120E+05 5.500E+02
AA383          rock1 1.500E+08                     4.210E+05 3.210E+05 5.500E+02
AA384          rock1 1.500E+08                     4.220E+05 3.030E+05 5.500E+02
AA385          rock1 1.000E+08                     4.220E+05 3.040E+05 5.500E+02
AA386          rock1 1.000E+08                     4.220E+05 3.050E+05 5.500E+02
AA387          rock1 1.000E+08                     4.220E+05 3.060E+05 5.500E+02
AA388          rock1 1.000E+08                     4.220E+05 3.070E+05 5.500E+02
AA389          rock1 1.000E+08                     4.220E+05 3.080E+05 5.500E+02
AA390          rock1 1.000E+08                     4.220E+05 3.090E+05 5.500E+02
AA391          rock1 1.000E+08                     4.220E+05 3.100E+05 5.500E+02
AA392          rock1 1.000E+08                     4.220E+05 3.110E+05 5.500E+02
AA393          rock1 1.000E+08                     4.060E+05 3.130E+05 5.500E+02
AA394          rock1 1.000E+08                     4.220E+05 3.120E+05 5.500E+02
AA395          rock1 1.000E+08                     4.220E+05 3.130E+05 5.500E+02
AA396          rock1 1.000E+08                     4.220E+05 3.140E+05 5.500E+02
AA397          rock1 1.000E+08                     4.220E+05 3.150E+05 5.500E+02
AA398          rock1 1.000E+08                     4.220E+05 3.160E+05 5.500E+02
AA399          rock1 1.000E+08                     4.220E+05 3.170E+05 5.500E+02
AA410          rock1 1.000E+08                     4.220E+05 3.180E+05 5.500E+02
AA411          rock1 1.000E+08                     4.220E+05 3.190E+05 5.500E+02
AA412          rock1 1.000E+08                     4.220E+05 3.200E+05 5.500E+02
AA413          rock1 1.500E+08                     4.220E+05 3.210E+05 5.500E+02
AA414          rock1 1.500E+08                     4.050E+05 3.060E+05 5.500E+02
AA415          rock1 1.000E+08                     4.060E+05 3.140E+05 5.500E+02
AA416          rock1 2.250E+08                     4.230E+05 3.030E+05 5.500E+02
AA417          rock1 1.500E+08                     4.230E+05 3.040E+05 5.500E+02
AA418          rock1 1.500E+08                     4.230E+05 3.050E+05 5.500E+02
AA419          rock1 1.500E+08                     4.230E+05 3.060E+05 5.500E+02
AA420          rock1 1.500E+08                     4.230E+05 3.070E+05 5.500E+02
AA421          rock1 1.500E+08                     4.230E+05 3.080E+05 5.500E+02
AA422          rock1 1.500E+08                     4.230E+05 3.090E+05 5.500E+02
AA423          rock1 1.500E+08                     4.230E+05 3.100E+05 5.500E+02
AA424          rock1 1.500E+08                     4.230E+05 3.110E+05 5.500E+02
AA425          rock1 1.500E+08                     4.230E+05 3.120E+05 5.500E+02
AA426          rock1 1.000E+08                     4.060E+05 3.150E+05 5.500E+02
AA427          rock1 1.500E+08                     4.230E+05 3.130E+05 5.500E+02
AA428          rock1 1.500E+08                     4.230E+05 3.140E+05 5.500E+02
AA429          rock1 1.500E+08                     4.230E+05 3.150E+05 5.500E+02
AA430          rock1 1.500E+08                     4.230E+05 3.160E+05 5.500E+02
AA431          rock1 1.500E+08                     4.230E+05 3.170E+05 5.500E+02
AA432          rock1 1.500E+08                     4.230E+05 3.180E+05 5.500E+02
AA433          rock1 1.500E+08                     4.230E+05 3.190E+05 5.500E+02
AA434          rock1 1.500E+08                     4.230E+05 3.200E+05 5.500E+02
AA435          rock1 2.250E+08                     4.230E+05 3.210E+05 5.500E+02
AA436          rock1 5.453E+07                     4.103E+05 3.074E+05 5.500E+02