*Test runs
ROCKS----1----*----2----*----3----*----4----*----5----*----6----*----7----*----8
barri    02.6500E+031.0000E-011.0000E-301.0000E-301.0000E-302.1000E+008.5000E+02
rock2    02.6500E+031.0000E-011.0000E-201.0000E-201.0000E-202.1000E+008.5000E+02
caprk    02.6500E+031.0000E-011.0000E-181.0000E-181.0000E-182.1000E+008.5000E+02
rock3    02.6500E+031.0000E-011.0000E-151.0000E-151.0000E-152.1000E+008.5000E+02
rock4    02.6500E+031.0000E-011.0000E-151.0000E-151.0000E-152.1000E+008.5000E+02
rock1    02.6500E+031.0000E-011.0000E-141.0000E-141.0000E-142.1000E+008.5000E+02

START----1----*----2----*----3----*----4----*----5----*----6----*----7----*----8
----*----1 MOP: 123456789*123456789*1234 ---*----5----*----6----*----7----*----8
PARAM----1----*----2----*----3----*----4----*----5----*----6----*----7----*----8
  202999    50001000102000020004    2                       
-3.140E+14           3.140E+07                     9.810E+00 3.500E+00          
 1.000E-03                                                  
 1.0000000000000E+07 2.5000000000000E+02 1.0000000000000E+05

MULTI----1----*----2----*----3----*----4----*----5----*----6----*----7----*----8
    1    2    2    6

SOLVR----1----*----2----*----3----*----4----*----5----*----6----*----7----*----8
5  Z4   O4 4.000E-02 1.000E-06          

RPCAP----1----*----2----*----3----*----4----*----5----*----6----*----7----*----8
    3      4.000E-01 3.000E-02                                                  
    1      1.000E+06 0.000E+00 1.000E+00                                        

FOFT ----1----*----2----*----3----*----4----*----5----*----6----*----7----*----8
CA114
CA115
CA118
CA124
CA149
CA151
CA152
DA110
DA116
DA120
DA122
DA126
DA128
DA129
DA146
DA147
EA113
EA123
EA130
EA150
FA111
FA127
FA148
FA153
GA134
GA135
GA139
GA140
HA142
HA143
IA117
IA119
IA121
IA125
IA131
IA133
IA141
IA144
IA145
JA136
JA137
JA138
JA154
KA156
KA157
KA158
KA160
MA155

TIMES----1----*----2----*----3----*----4----*----5----*----6----*----7----*----8
   10   10                    
 1.000E+01 1.000E+02 1.000E+03 1.000E+04 1.000E+05 1.000E+06 1.000E+07 2.000E+07
 3.000E+07 4.000E+07

INCON
AA110                         
 0.4174478948716E+09 0.2598230072510E+03
AA111                         
 0.4174470219577E+09 0.2599497047022E+03
AA112                         
 0.4174696766824E+09 0.2599626066849E+03
AA113                         
 0.4174501255374E+09 0.2596594189192E+03
AA114                         
 0.4174412082435E+09 0.2599014815138E+03
AA115                         
 0.4174774042904E+09 0.2599425246372E+03
AA116                         
 0.4175393344951E+09 0.2593867072046E+03
AA117                         
 0.4175376852547E+09 0.2592908605764E+03
AA118                         
 0.4174751263382E+09 0.2598909687569E+03
AA119                         
 0.4175416160621E+09 0.2591650604129E+03
AA120                         
 0.4174775881682E+09 0.2595872261055E+03
AA121                         
 0.4174410329814E+09 0.2599240675002E+03
AA122                         
 0.4174521449525E+09 0.2598987365953E+03
AA123                         
 0.4174524179894E+09 0.2597815686239E+03
AA124                         
 0.4174377598165E+09 0.2597557243925E+03
AA125                         
 0.4174429927142E+09 0.2597628862091E+03
AA126                         
 0.4174628838507E+09 0.2598135160630E+03
AA127                         
 0.4174440868731E+09 0.2598601359321E+03
AA128                         
 0.4174521261060E+09 0.2598357869860E+03
AA129                         
 0.4174791437035E+09 0.2596365167848E+03
AA130                         
 0.4174488194417E+09 0.2597166919859E+03
AA131                         
 0.4174407098639E+09 0.2599048999950E+03
AA132                         
 0.4174337930417E+09 0.2597969585678E+03
AA133                         
 0.4174566946850E+09 0.2597282460561E+03
AA134                         
 0.4175396494173E+09 0.2595034774721E+03
AA135                         
 0.4175388045663E+09 0.2591848534056E+03
AA136                         
 0.4175432267805E+09 0.2594409968193E+03
AA137                         
 0.4175391863150E+09 0.2589981280842E+03
AA138                         
 0.4175411321382E+09 0.2591715133757E+03
AA139                         
 0.4175339886935E+09 0.2586914421433E+03
AA140                         
 0.4175362681885E+09 0.2586848843001E+03
AA141                         
 0.4175347221344E+09 0.2584034822773E+03
AA142                         
 0.4175393408638E+09 0.2595849714279E+03
AA143                         
 0.4175359454322E+09 0.2593459590083E+03
AA144                         
 0.4175416842910E+09 0.2595320318496E+03
AA145                         
 0.4175411666780E+09 0.2597013672770E+03
AA146                         
 0.4174761808415E+09 0.2598918173836E+03
AA147                         
 0.4174395574607E+09 0.2598346514953E+03
AA148                         
 0.4174433678544E+09 0.2599043854611E+03
AA149                         
 0.4174605373905E+09 0.2598678905563E+03
AA150                         
 0.4174618804322E+09 0.2596954773743E+03
AA151                         
 0.4174335692065E+09 0.2597607786173E+03
AA152                         
 0.4175280986688E+09 0.2592885147066E+03
AA153                         
 0.4174452272139E+09 0.2598273687778E+03
AA154                         
 0.4174428744269E+09 0.2598650753379E+03
AA155                         
 0.4174103286835E+09 0.2599370075791E+03
AA156                         
 0.4174419996884E+09 0.2597761392073E+03
AA157                         
 0.4174428896444E+09 0.2597680167512E+03
AA158                         
 0.4174414767495E+09 0.2596574344572E+03
AA159                         
 0.4174872333693E+09 0.2599391185935E+03
AA160                         
 0.4173546672953E+09 0.2599133482806E+03
AA161                         
 0.4174831911105E+09 0.2590676441931E+03
AA162                         
 0.4174828036983E+09 0.2590875972651E+03
AA163                         
 0.4174472806182E+09 0.2590766110815E+03
AA164                         
 0.4175113780739E+09 0.2599924659697E+03
AA165                         
 0.4175055457315E+09 0.2599833687019E+03
AA166                         
 0.4174926538822E+09 0.2600099887453E+03
AA167                         
 0.4174773404562E+09 0.2599549557683E+03
AA168                         
 0.4174636195504E+09 0.2597944947169E+03
AA169                         
 0.4174519656659E+09 0.2595752050707E+03
AA170                         
 0.4174429297802E+09 0.2593715921916E+03
AA171                         
 0.4174358603529E+09 0.2592163245085E+03
AA172                         
 0.4174303394486E+09 0.2591160714546E+03
AA173                         
 0.4174260136345E+09 0.2590575336934E+03
AA174                         
 0.4174414598585E+09 0.2590491478549E+03
AA175                         
 0.4174226811778E+09 0.2590263658335E+03
AA176                         
 0.4174201996155E+09 0.2590110721682E+03
AA177                         
 0.4174184772157E+09 0.2590041068209E+03
AA178                         
 0.4174174602866E+09 0.2590011843471E+03
AA179                         
 0.4175046227177E+09 0.2596808817184E+03
AA180                         
 0.4175080030730E+09 0.2598419507198E+03
AA181                         
 0.4175127364162E+09 0.2600076423142E+03
AA182                         
 0.4175174051068E+09 0.2600291689249E+03
AA183                         
 0.4175205107888E+09 0.2598013381682E+03
AA184                         
 0.4174410824851E+09 0.2594346815548E+03
AA185                         
 0.4174361832585E+09 0.2590290321839E+03
AA186                         
 0.4174345755398E+09 0.2592537605925E+03
AA187                         
 0.4174293220320E+09 0.2591367376250E+03
AA188                         
 0.4174251640331E+09 0.2590679469452E+03
AA189                         
 0.4174219458670E+09 0.2590312196024E+03
AA190                         
 0.4174195444415E+09 0.2590131781739E+03
AA191                         
 0.4174178760303E+09 0.2590049615958E+03
AA192                         
 0.4174168904973E+09 0.2590015156947E+03
AA193                         
 0.4175067006820E+09 0.2597610949781E+03
AA194                         
 0.4175106114568E+09 0.2599196440073E+03
AA195                         
 0.4175160718569E+09 0.2600396947431E+03
AA196                         
 0.4174315604209E+09 0.2590157466843E+03
AA197                         
 0.4175214567452E+09 0.2599031594884E+03
AA198                         
 0.4175252932989E+09 0.2593421748498E+03
AA199                         
 0.4174384266706E+09 0.2594706218438E+03
AA210                         
 0.4174328906228E+09 0.2592767187185E+03
AA211                         
 0.4174280937814E+09 0.2591490268864E+03
AA212                         
 0.4174241955011E+09 0.2590740733423E+03
AA213                         
 0.4174211374132E+09 0.2590340656382E+03
AA214                         
 0.4174188388154E+09 0.2590144082055E+03
AA215                         
 0.4174172353836E+09 0.2590054617466E+03
AA216                         
 0.4174162862274E+09 0.2590017086013E+03
AA217                         
 0.4174276421331E+09 0.2590077718970E+03
AA218                         
 0.4175066191269E+09 0.2597837194457E+03
AA219                         
 0.4175107042557E+09 0.2599401013285E+03
AA220                         
 0.4175164179443E+09 0.2600431272381E+03
AA221                         
 0.4175221021909E+09 0.2598525650259E+03
AA222                         
 0.4175263598367E+09 0.2591817783096E+03
AA223                         
 0.4174360225976E+09 0.2594725000093E+03
AA224                         
 0.4174312221766E+09 0.2592782284941E+03
AA225                         
 0.4174268576851E+09 0.2591499273493E+03
AA226                         
 0.4174232175497E+09 0.2590745422688E+03
AA227                         
 0.4174203210840E+09 0.2590342892429E+03
AA228                         
 0.4174244445972E+09 0.2590033737748E+03
AA229                         
 0.4174181257845E+09 0.2590145057949E+03
AA230                         
 0.4174165868291E+09 0.2590054946414E+03
AA231                         
 0.4174156734064E+09 0.2590017188367E+03
AA232                         
 0.4175041956259E+09 0.2597446909406E+03
AA233                         
 0.4175080694840E+09 0.2599057148428E+03
AA234                         
 0.4175135399028E+09 0.2600425735749E+03
AA235                         
 0.4175191100225E+09 0.2599610599131E+03
AA236                         
 0.4175234514370E+09 0.2595214361174E+03
AA237                         
 0.4174344523962E+09 0.2594406855428E+03
AA238                         
 0.4174299129251E+09 0.2592591465464E+03
AA239                         
 0.4174219674725E+09 0.2590011328922E+03
AA240                         
 0.4174257897005E+09 0.2591394928296E+03
AA241                         
 0.4174223279922E+09 0.2590693218797E+03
AA242                         
 0.4174195560586E+09 0.2590318666102E+03
AA243                         
 0.4174174446669E+09 0.2590134537623E+03
AA244                         
 0.4174159593805E+09 0.2590050668577E+03
AA245                         
 0.4174150760293E+09 0.2590015458991E+03
AA246                         
 0.4174996978319E+09 0.2596513080269E+03
AA247                         
 0.4175029982714E+09 0.2598105403052E+03
AA248                         
 0.4175076895580E+09 0.2599858128753E+03
AA249                         
 0.4175125183530E+09 0.2600486805934E+03
AA250                         
 0.4174202046033E+09 0.2590000770501E+03
AA251                         
 0.4175162104948E+09 0.2599101326177E+03
AA252                         
 0.4174336352358E+09 0.2593847039496E+03
AA253                         
 0.4174290165746E+09 0.2592231640553E+03
AA254                         
 0.4174249498330E+09 0.2591200808868E+03
AA255                         
 0.4174215735207E+09 0.2590596336031E+03
AA256                         
 0.4174188766766E+09 0.2590273657656E+03
AA257                         
 0.4174168215543E+09 0.2590115006771E+03
AA258                         
 0.4174153742554E+09 0.2590042655105E+03
AA259                         
 0.4174145127658E+09 0.2590012263933E+03
AA260                         
 0.4174937499254E+09 0.2595226843461E+03
AA261                         
 0.4174191495323E+09 0.2589996221116E+03
AA262                         
 0.4174962370239E+09 0.2596636172120E+03
AA263                         
 0.4174997477687E+09 0.2598434739322E+03
AA264                         
 0.4175032701547E+09 0.2599838836029E+03
AA265                         
 0.4175056254784E+09 0.2600242663028E+03
AA266                         
 0.4174333218240E+09 0.2593090699866E+03
AA267                         
 0.4174284038066E+09 0.2591802226570E+03
AA268                         
 0.4174243010528E+09 0.2590962495667E+03
AA269                         
 0.4174209490532E+09 0.2590476028012E+03
AA270                         
 0.4174182890783E+09 0.2590217511342E+03
AA271                         
 0.4174162665098E+09 0.2590090550430E+03
AA272                         
 0.4174850500403E+09 0.2591100960247E+03
AA273                         
 0.4174148428888E+09 0.2590032608544E+03
AA274                         
 0.4174139955293E+09 0.2590008268029E+03
AA275                         
 0.4174871276665E+09 0.2593845657478E+03
AA276                         
 0.4174887440018E+09 0.2594945374574E+03
AA277                         
 0.4174909560502E+09 0.2596460428957E+03
AA278                         
 0.4174929789395E+09 0.2597920272561E+03
AA279                         
 0.4174938353948E+09 0.2598890844524E+03
AA280                         
 0.4174330258362E+09 0.2592321651444E+03
AA281                         
 0.4174279127362E+09 0.2591331618090E+03
AA282                         
 0.4174237617030E+09 0.2590711927396E+03
AA283                         
 0.4174820207222E+09 0.2591170897496E+03
AA284                         
 0.4174849061573E+09 0.2591431206934E+03
AA285                         
 0.4174204182422E+09 0.2590351396708E+03
AA286                         
 0.4174177796679E+09 0.2590159596189E+03
AA287                         
 0.4174157772048E+09 0.2590065345022E+03
AA288                         
 0.4174143685401E+09 0.2590022287091E+03
AA289                         
 0.4174135302045E+09 0.2590004168717E+03
AA290                         
 0.4174805486385E+09 0.2592598180173E+03
AA291                         
 0.4174813911118E+09 0.2593361687916E+03
AA292                         
 0.4174824412329E+09 0.2594452565749E+03
AA293                         
 0.4174831116327E+09 0.2595587758234E+03
AA294                         
 0.4174827597785E+09 0.2596492685999E+03
AA295                         
 0.4174844779435E+09 0.2591918000382E+03
AA296                         
 0.4174802457733E+09 0.2596897114562E+03
AA297                         
 0.4174752538956E+09 0.2596780623762E+03
AA298                         
 0.4174671996499E+09 0.2596130616860E+03
AA299                         
 0.4174566673286E+09 0.2595025272639E+03
AA310                         
 0.4174468311725E+09 0.2593763341654E+03
AA311                         
 0.4174387899618E+09 0.2592550689033E+03
AA312                         
 0.4174324374095E+09 0.2591591845840E+03
AA313                         
 0.4174273537180E+09 0.2590927390502E+03
AA314                         
 0.4174232439036E+09 0.2590490683507E+03
AA315                         
 0.4174199385600E+09 0.2590240363252E+03
AA316                         
 0.4174834724987E+09 0.2592455009679E+03
AA317                         
 0.4174173287439E+09 0.2590107875128E+03
AA318                         
 0.4174153460333E+09 0.2590042807083E+03
AA319                         
 0.4174139500790E+09 0.2590013030099E+03
AA320                         
 0.4174131189012E+09 0.2590000518026E+03
AA321                         
 0.4174745483413E+09 0.2591616558106E+03
AA322                         
 0.4174747945052E+09 0.2592095032281E+03
AA323                         
 0.4174749641794E+09 0.2592792442185E+03
AA324                         
 0.4174746755979E+09 0.2593549208920E+03
AA325                         
 0.4174733167516E+09 0.2594129897613E+03
AA326                         
 0.4174705270600E+09 0.2594436562811E+03
AA327                         
 0.4174815461273E+09 0.2592908963747E+03
AA328                         
 0.4174658732209E+09 0.2594351554719E+03
AA329                         
 0.4174594227347E+09 0.2593902843372E+03
AA330                         
 0.4174518589944E+09 0.2593198707454E+03
AA331                         
 0.4174441969462E+09 0.2592382904319E+03
AA332                         
 0.4174373087975E+09 0.2591623493208E+03
AA333                         
 0.4174315047585E+09 0.2591024638234E+03
AA334                         
 0.4174266753764E+09 0.2590587053105E+03
AA335                         
 0.4174227096229E+09 0.2590310454906E+03
AA336                         
 0.4174194865497E+09 0.2590151067207E+03
AA337                         
 0.4174169234860E+09 0.2590066469989E+03
AA338                         
 0.4174784019737E+09 0.2593157786761E+03
AA339                         
 0.4174149672537E+09 0.2590024781529E+03
AA340                         
 0.4174135861051E+09 0.2590005645206E+03
AA341                         
 0.4174127625556E+09 0.2589997595226E+03
AA342                         
 0.4174694557471E+09 0.2590928994399E+03
AA343                         
 0.4174692863838E+09 0.2591201847665E+03
AA344                         
 0.4174688446281E+09 0.2591601303560E+03
AA345                         
 0.4174678761267E+09 0.2592034995835E+03
AA346                         
 0.4174660543104E+09 0.2592382305790E+03
AA347                         
 0.4174631327948E+09 0.2592560581168E+03
AA348                         
 0.4174589555991E+09 0.2592512397368E+03
AA349                         
 0.4174739119307E+09 0.2593132819641E+03
AA350                         
 0.4174536336897E+09 0.2592249715393E+03
AA351                         
 0.4174475841155E+09 0.2591838983086E+03
AA352                         
 0.4174413890498E+09 0.2591371163195E+03
AA353                         
 0.4174355673548E+09 0.2590936456667E+03
AA354                         
 0.4174303966296E+09 0.2590589552479E+03
AA355                         
 0.4174259385039E+09 0.2590339834517E+03
AA356                         
 0.4174221765301E+09 0.2590179663134E+03
AA357                         
 0.4174190655354E+09 0.2590086437674E+03
AA358                         
 0.4174165637576E+09 0.2590036520397E+03
AA359                         
 0.4174146408683E+09 0.2590011745445E+03
AA360                         
 0.4174682064380E+09 0.2592839040717E+03
AA361                         
 0.4174132775807E+09 0.2590000329766E+03
AA362                         
 0.4174124628949E+09 0.2589995491410E+03
AA363                         
 0.4174654381890E+09 0.2590494736301E+03
AA364                         
 0.4174650063060E+09 0.2590637793608E+03
AA365                         
 0.4174641868340E+09 0.2590847155968E+03
AA366                         
 0.4174628269539E+09 0.2591074527814E+03
AA367                         
 0.4174607512197E+09 0.2591259604150E+03
AA368                         
 0.4174578287581E+09 0.2591353879157E+03
AA369                         
 0.4174540171886E+09 0.2591328768348E+03
AA370                         
 0.4174494274442E+09 0.2591190095417E+03
AA371                         
 0.4174616741491E+09 0.2592350170216E+03
AA372                         
 0.4174443307938E+09 0.2590973291603E+03
AA373                         
 0.4174390861655E+09 0.2590727353905E+03
AA374                         
 0.4174340282704E+09 0.2590498119152E+03
AA375                         
 0.4174293822143E+09 0.2590313633916E+03
AA376                         
 0.4174252576065E+09 0.2590180825111E+03
AA377                         
 0.4174216945465E+09 0.2590094917523E+03
AA378                         
 0.4174186978957E+09 0.2590044340401E+03
AA379                         
 0.4174162602748E+09 0.2590016948956E+03
AA380                         
 0.4174143727214E+09 0.2590003225270E+03
AA381                         
 0.4174130284115E+09 0.2589996851073E+03
AA382                         
 0.4174548239794E+09 0.2591779607481E+03
AA383                         
 0.4174122231238E+09 0.2589994128025E+03
AA384                         
 0.4174625601471E+09 0.2590246826630E+03
AA385                         
 0.4174619771157E+09 0.2590316928840E+03
AA386                         
 0.4174609451589E+09 0.2590419262076E+03
AA387                         
 0.4174593764532E+09 0.2590530345061E+03
AA388                         
 0.4174571796859E+09 0.2590621325591E+03
AA389                         
 0.4174542971323E+09 0.2590667619689E+03
AA390                         
 0.4174507372644E+09 0.2590655532712E+03
AA391                         
 0.4174466019973E+09 0.2590587781915E+03
AA392                         
 0.4174420840883E+09 0.2590481528945E+03
AA393                         
 0.4174481224634E+09 0.2591236010796E+03
AA394                         
 0.4174374274402E+09 0.2590360793102E+03
AA395                         
 0.4174328690538E+09 0.2590247515538E+03
AA396                         
 0.4174285931415E+09 0.2590155613532E+03
AA397                         
 0.4174247187171E+09 0.2590089056460E+03
AA398                         
 0.4174213133729E+09 0.2590045522224E+03
AA399                         
 0.4174184113657E+09 0.2590019634186E+03
AA410                         
 0.4174160285581E+09 0.2590005417042E+03
AA411                         
 0.4174141718938E+09 0.2589998206710E+03
AA412                         
 0.4174128444012E+09 0.2589994790356E+03
AA413                         
 0.4174120475046E+09 0.2589993317893E+03
AA414                         
 0.4174806356944E+09 0.2591498119929E+03
AA415                         
 0.4174419034836E+09 0.2590789610972E+03
AA416                         
 0.4174608350240E+09 0.2590122683698E+03
AA417                         
 0.4174601753972E+09 0.2590156846327E+03
AA418                         
 0.4174590377759E+09 0.2590206663446E+03
AA419                         
 0.4174573695052E+09 0.2590260624469E+03
AA420                         
 0.4174551223113E+09 0.2590304920616E+03
AA421                         
 0.4174522765497E+09 0.2590327520215E+03
AA422                         
 0.4174488632025E+09 0.2590321851339E+03
AA423                         
 0.4174449771031E+09 0.2590289120525E+03
AA424                         
 0.4174407720965E+09 0.2590237433770E+03
AA425                         
 0.4174364365528E+09 0.2590178326148E+03
AA426                         
 0.4174363586118E+09 0.2590464750412E+03
AA427                         
 0.4174321590806E+09 0.2590122363144E+03
AA428                         
 0.4174280997461E+09 0.2590076433841E+03
AA429                         
 0.4174243772037E+09 0.2590042817072E+03
AA430                         
 0.4174210708967E+09 0.2590020522773E+03
AA431                         
 0.4174182300132E+09 0.2590007036544E+03
AA432                         
 0.4174158834227E+09 0.2589999540281E+03
AA433                         
 0.4174140475074E+09 0.2589995640256E+03
AA434                         
 0.4174127314558E+09 0.2589993757182E+03
AA435                         
 0.4174119403116E+09 0.2589992926699E+03
AA436                         
 0.4175152033112E+09 0.2599689793092E+03
AA437                         
 0.4174315721510E+09 0.2590251824695E+03
AA438                         
 0.4175189318364E+09 0.2596133270784E+03
AA439                         
 0.4175050772334E+09 0.2599251910241E+03
AA440                         
 0.4174875093904E+09 0.2599504930305E+03
AA441                         
 0.4174718348327E+09 0.2599327684000E+03
AA442                         
 0.4174568721067E+09 0.2597945415128E+03
AA443                         
 0.4174476197094E+09 0.2595165141965E+03
AA444                         
 0.4175232025964E+09 0.2595279101442E+03
AA445                         
 0.4175285649656E+09 0.2587505610171E+03
AA446                         
 0.4175231563170E+09 0.2594599912635E+03
AA447                         
 0.4174709094252E+09 0.2599672471895E+03
AA448                         
 0.4174275635495E+09 0.2590125021108E+03
AA449                         
 0.4174483091036E+09 0.2598455364054E+03
AA450                         
 0.4174447314062E+09 0.2595868631626E+03
AA451                         
 0.4175273579376E+09 0.2589181212870E+03
AA452                         
 0.4175321889074E+09 0.2579804238589E+03
AA453                         
 0.4175373552627E+09 0.2588653416463E+03
AA454                         
 0.4174459993466E+09 0.2599433865527E+03
AA455                         
 0.4174427003020E+09 0.2598529820811E+03
AA456                         
 0.4174407667755E+09 0.2596171655883E+03
AA457                         
 0.4175274795767E+09 0.2589025504482E+03
AA458                         
 0.4175303382833E+09 0.2587244211822E+03
AA459                         
 0.4174243215263E+09 0.2590055839936E+03
AA460                         
 0.4175392229333E+09 0.2589642951875E+03
AA461                         
 0.4174666722217E+09 0.2597584815414E+03
AA462                         
 0.4174414093024E+09 0.2599375771117E+03
AA463                         
 0.4174408600322E+09 0.2598249354371E+03
AA464                         
 0.4174381097674E+09 0.2596078071537E+03
AA465                         
 0.4175232186014E+09 0.2594939148921E+03
AA466                         
 0.4175214808222E+09 0.2595921671504E+03
AA467                         
 0.4175321489647E+09 0.2595249423917E+03
AA468                         
 0.4173251907410E+09 0.2599390479725E+03
AA469                         
 0.4174425586183E+09 0.2599340742068E+03
AA470                         
 0.4174218255188E+09 0.2590020995112E+03
AA471                         
 0.4174409807666E+09 0.2597500176836E+03
AA472                         
 0.4174368127266E+09 0.2595578803070E+03
AA473                         
 0.4175142088557E+09 0.2599409813828E+03
AA474                         
 0.4175078194648E+09 0.2599860204159E+03
AA475                         
 0.4175122620979E+09 0.2599194768196E+03
AA476                         
 0.4174927471520E+09 0.2599635959156E+03
AA477                         
 0.4174445607099E+09 0.2598836287720E+03
AA478                         
 0.4174423785880E+09 0.2596374829762E+03
AA479                         
 0.4174365120313E+09 0.2594798135139E+03
AA480                         
 0.4175022631861E+09 0.2600193412478E+03
AA481                         
 0.4174200563005E+09 0.2590004712340E+03
AA482                         
 0.4174935188667E+09 0.2599655752791E+03
AA483                         
 0.4174947576409E+09 0.2599888963876E+03
AA484                         
 0.4174740486715E+09 0.2598383374481E+03
AA485                         
 0.4174522106737E+09 0.2597618044107E+03
AA486                         
 0.4174440248233E+09 0.2594961714891E+03
AA487                         
 0.4174367009640E+09 0.2593811983948E+03
AA488                         
 0.4174899249509E+09 0.2598470846433E+03
AA489                         
 0.4174808255224E+09 0.2597417679315E+03
AA490                         
 0.4174804635134E+09 0.2598315976512E+03
AA491                         
 0.4174648144610E+09 0.2596182633472E+03
AA492                         
 0.4174189997651E+09 0.2589997775111E+03
AA493                         
 0.4174544747815E+09 0.2595846617178E+03
AA494                         
 0.4174436637037E+09 0.2593525460828E+03
AA495                         
 0.4174365502462E+09 0.2592789659560E+03
AA496                         
 0.4174880534166E+09 0.2591835474585E+03
AA497                         
 0.4174883361543E+09 0.2592388322537E+03
AA498                         
 0.4174784185179E+09 0.2591777592002E+03
AA499                         
 0.4174885328431E+09 0.2593196152525E+03
AA510                         
 0.4174882031482E+09 0.2594073152030E+03
AA511                         
 0.4174868052418E+09 0.2594796822303E+03
AA512                         
 0.4174838362969E+09 0.2595181609628E+03
AA513                         
 0.4174790300306E+09 0.2595135150165E+03
AA514                         
 0.4174725249824E+09 0.2594665517495E+03
AA515                         
 0.4174649225671E+09 0.2593874357214E+03
AA516                         
 0.4174570010617E+09 0.2592938672670E+03
AA517                         
 0.4174494093219E+09 0.2592040482811E+03
AA518                         
 0.4174425446694E+09 0.2591301282491E+03
AA519                         
 0.4174751860380E+09 0.2591933695253E+03
AA520                         
 0.4174365792017E+09 0.2590764107104E+03
AA521                         
 0.4174315450072E+09 0.2590413047791E+03
AA522                         
 0.4174274052156E+09 0.2590205365422E+03
AA523                         
 0.4174241021572E+09 0.2590093132577E+03
AA524                         
 0.4174215828068E+09 0.2590037169660E+03
AA525                         
 0.4174198076432E+09 0.2590011287441E+03
AA526                         
 0.4174187510148E+09 0.2590000333603E+03
AA527                         
 0.4174919954330E+09 0.2592888321193E+03
AA528                         
 0.4174929029631E+09 0.2593747045251E+03
AA529                         
 0.4174940204237E+09 0.2594974630629E+03
AA530                         
 0.4174708803850E+09 0.2591921688143E+03
AA531                         
 0.4174947006587E+09 0.2596254751086E+03
AA532                         
 0.4174941183576E+09 0.2597244690955E+03
AA533                         
 0.4174914576909E+09 0.2597734614189E+03
AA534                         
 0.4174862051544E+09 0.2597661806298E+03
AA535                         
 0.4174784397876E+09 0.2597034385679E+03
AA536                         