*Test runs
ROCKS----1----*----2----*----3----*----4----*----5----*----6----*----7----*----8
basam    02.6500E+031.0000E-011.0000E-211.0000E-211.0000E-212.1000E+008.5000E+02
barri    02.6500E+031.0000E-011.0000E-201.0000E-201.0000E-202.1000E+008.5000E+02
rock1    02.6500E+031.0000E-011.0000E-181.0000E-181.0000E-182.1000E+008.5000E+02
caprk    02.6500E+031.0000E-011.0000E-181.0000E-181.0000E-182.1000E+008.5000E+02
sorrn    02.6500E+031.0000E-011.0000E-171.0000E-171.0000E-172.1000E+008.5000E+02

START----1----*----2----*----3----*----4----*----5----*----6----*----7----*----8
----*----1 MOP: 123456789*123456789*1234 ---*----5----*----6----*----7----*----8
PARAM----1----*----2----*----3----*----4----*----5----*----6----*----7----*----8
  202999    50001000102000020004    2                       
-3.140E+14           3.140E+07                     9.810E+00 3.500E+00          
 1.000E-03                                                  
 1.0000000000000E+07 2.5000000000000E+02 1.0000000000000E+05

MULTI----1----*----2----*----3----*----4----*----5----*----6----*----7----*----8
    1    2    2    6

SOLVR----1----*----2----*----3----*----4----*----5----*----6----*----7----*----8
5  Z4   O4 4.000E-02 1.000E-06          

RPCAP----1----*----2----*----3----*----4----*----5----*----6----*----7----*----8
    3      4.000E-01 3.000E-02                                                  
    1      1.000E+06 0.000E+00 1.000E+00                                        

FOFT ----1----*----2----*----3----*----4----*----5----*----6----*----7----*----8
CA114
CA115
CA118
CA124
CA149
CA151
CA152
DA110
DA116
DA120
DA122
DA126
DA128
DA129
DA146
DA147
EA113
EA123
EA130
EA150
FA111
FA127
FA148
FA153
GA134
GA135
GA139
GA140
HA142
HA143
IA117
IA119
IA121
IA125
IA131
IA133
IA141
IA144
IA145
JA136
JA137
JA138
JA154
KA156
KA157
KA158
KA160
MA155

TIMES----1----*----2----*----3----*----4----*----5----*----6----*----7----*----8
  100  100                    
 1.578E+07 3.156E+07 4.734E+07 6.312E+07 7.889E+07 9.467E+07 1.105E+08 1.262E+08
 1.420E+08 1.578E+08 1.736E+08 1.893E+08 2.051E+08 2.209E+08 2.367E+08 2.525E+08
 2.682E+08 2.840E+08 2.998E+08 3.156E+08 3.314E+08 3.471E+08 3.629E+08 3.787E+08
 3.945E+08 4.102E+08 4.260E+08 4.418E+08 4.576E+08 4.734E+08 4.891E+08 5.049E+08
 5.207E+08 5.365E+08 5.523E+08 5.680E+08 5.838E+08 5.996E+08 6.154E+08 6.312E+08
 6.469E+08 6.627E+08 6.785E+08 6.943E+08 7.100E+08 7.258E+08 7.416E+08 7.574E+08
 7.732E+08 7.889E+08 8.047E+08 8.205E+08 8.363E+08 8.521E+08 8.678E+08 8.836E+08
 8.994E+08 9.152E+08 9.309E+08 9.467E+08 9.625E+08 9.783E+08 9.941E+08 1.010E+09
 1.026E+09 1.041E+09 1.057E+09 1.073E+09 1.089E+09 1.105E+09 1.120E+09 1.136E+09
 1.152E+09 1.168E+09 1.183E+09 1.199E+09 1.215E+09 1.231E+09 1.247E+09 1.262E+09
 1.278E+09 1.294E+09 1.310E+09 1.325E+09 1.341E+09 1.357E+09 1.373E+09 1.389E+09
 1.404E+09 1.420E+09 1.436E+09 1.452E+09 1.467E+09 1.483E+09 1.499E+09 1.515E+09
 1.531E+09 1.546E+09 1.562E+09 1.578E+09

INCON
AA110                         
 0.1461659523769E+08 0.2504587231992E+03
AA111                         
 0.1461667515342E+08 0.2504691987632E+03
AA112                         
 0.1461659173109E+08 0.2504549783953E+03
AA113                         
 0.1461669866326E+08 0.2504616855219E+03
AA114                         
 0.1461653606195E+08 0.2504634861085E+03
AA115                         
 0.1461655881145E+08 0.2504511418969E+03
AA116                         
 0.1461656057121E+08 0.2504514805956E+03
AA117                         
 0.1461656356607E+08 0.2504608213020E+03
AA118                         
 0.1461653872715E+08 0.2504487484224E+03
AA119                         
 0.1461659630187E+08 0.2504537806678E+03
AA120                         
 0.1461667084270E+08 0.2504637658612E+03
AA121                         
 0.1461660019076E+08 0.2504610857596E+03
AA122                         
 0.1461657607157E+08 0.2504575836696E+03
AA123                         
 0.1461660849372E+08 0.2504570114860E+03
AA124                         
 0.1461659543900E+08 0.2504571484024E+03
AA125                         
 0.1461656226545E+08 0.2504584170281E+03
AA126                         
 0.1461661134161E+08 0.2504601999991E+03
AA127                         
 0.1461658691421E+08 0.2504591647394E+03
AA128                         
 0.1461656460847E+08 0.2504545801383E+03
AA129                         
 0.1461657810365E+08 0.2504557543185E+03
AA130                         
 0.1461664002819E+08 0.2504623660462E+03
AA131                         
 0.1461656263206E+08 0.2504563369871E+03
AA132                         
 0.1461656163802E+08 0.2504526225070E+03
AA133                         
 0.1461647937372E+08 0.2504479116616E+03
AA134                         
 0.1461651764506E+08 0.2504485895737E+03
AA135                         
 0.1461652873647E+08 0.2504484910127E+03
AA136                         
 0.1461652912402E+08 0.2504484889447E+03
AA137                         
 0.1461653046367E+08 0.2504485534699E+03
AA138                         
 0.1461639580542E+08 0.2504452724065E+03
AA139                         
 0.1461639399123E+08 0.2504452361309E+03
AA140                         
 0.1461639217412E+08 0.2504452003715E+03
AA141                         
 0.1461664118931E+08 0.2504519099872E+03
AA142                         
 0.1461664107925E+08 0.2504518784447E+03
AA143                         
 0.1461665699883E+08 0.2504525022479E+03
AA144                         
 0.1461664354315E+08 0.2504520268464E+03
AA145                         
 0.1461655467601E+08 0.2504607231371E+03
AA146                         
 0.1461664014811E+08 0.2504590687854E+03
AA147                         
 0.1461661767913E+08 0.2504593497034E+03
AA148                         
 0.1461662999041E+08 0.2504623797277E+03
AA149                         
 0.1461657885316E+08 0.2504600092855E+03
AA150                         
 0.1461654648333E+08 0.2504555370786E+03
AA151                         
 0.1461650988267E+08 0.2504563870738E+03
AA152                         
 0.1461654687163E+08 0.2504490554507E+03
AA153                         
 0.1461678869603E+08 0.2504782191544E+03
AA154                         
 0.1461680224589E+08 0.2504823094672E+03
AA155                         
 0.1461679033127E+08 0.2504785528777E+03
AA156                         
 0.1461675803043E+08 0.2504751943251E+03
AA157                         
 0.1461682627459E+08 0.2504850004300E+03
AA158                         
 0.1461682731580E+08 0.2504851698986E+03
AA159                         
 0.1461682798385E+08 0.2504852803569E+03
AA160                         
 0.1461672807926E+08 0.2504613871500E+03
AA161                         
 0.1461664511266E+08 0.2505071621974E+03
AA162                         
 0.1461677844781E+08 0.2505061765207E+03
AA163                         
 0.1461716556503E+08 0.2505291053853E+03
AA164                         
 0.1461615110520E+08 0.2504560088998E+03
AA165                         
 0.1461620710830E+08 0.2504591300651E+03
AA166                         
 0.1461632532862E+08 0.2504653837425E+03
AA167                         
 0.1461644394129E+08 0.2504745390928E+03
AA168                         
 0.1461661799101E+08 0.2504858484634E+03
AA169                         
 0.1461677831719E+08 0.2504984679378E+03
AA170                         
 0.1461697376560E+08 0.2505112460701E+03
AA171                         
 0.1461713628313E+08 0.2505236049435E+03
AA172                         
 0.1461730126002E+08 0.2505346965900E+03
AA173                         
 0.1461744774058E+08 0.2505441544778E+03
AA174                         
 0.1461731768361E+08 0.2505364701851E+03
AA175                         
 0.1461756801011E+08 0.2505518096124E+03
AA176                         
 0.1461765960567E+08 0.2505576425318E+03
AA177                         
 0.1461772118271E+08 0.2505617107854E+03
AA178                         
 0.1461773681968E+08 0.2505640810381E+03
AA179                         
 0.1461611806133E+08 0.2504596321935E+03
AA180                         
 0.1461608231159E+08 0.2504569206445E+03
AA181                         
 0.1461603947304E+08 0.2504531489440E+03
AA182                         
 0.1461600329946E+08 0.2504494592657E+03
AA183                         
 0.1461599279314E+08 0.2504471005118E+03
AA184                         
 0.1461692621418E+08 0.2505067362459E+03
AA185                         
 0.1461743497367E+08 0.2505435398951E+03
AA186                         
 0.1461708511190E+08 0.2505200072079E+03
AA187                         
 0.1461725812520E+08 0.2505319285876E+03
AA188                         
 0.1461741419271E+08 0.2505420751910E+03
AA189                         
 0.1461754276837E+08 0.2505502650509E+03
AA190                         
 0.1461764104572E+08 0.2505564870374E+03
AA191                         
 0.1461770890221E+08 0.2505608204966E+03
AA192                         
 0.1461774692877E+08 0.2505633659476E+03
AA193                         
 0.1461610838248E+08 0.2504551175487E+03
AA194                         
 0.1461602123791E+08 0.2504522863745E+03
AA195                         
 0.1461597231822E+08 0.2504483046887E+03
AA196                         
 0.1461753962792E+08 0.2505499937212E+03
AA197                         
 0.1461593496701E+08 0.2504443856487E+03
AA198                         
 0.1461592741052E+08 0.2504418564570E+03
AA199                         
 0.1461689418624E+08 0.2505039781802E+03
AA210                         
 0.1461705367322E+08 0.2505178308854E+03
AA211                         
 0.1461723156418E+08 0.2505302536680E+03
AA212                         
 0.1461739324782E+08 0.2505408089330E+03
AA213                         
 0.1461752675403E+08 0.2505493110090E+03
AA214                         
 0.1461762902660E+08 0.2505557552476E+03
AA215                         
 0.1461770028400E+08 0.2505602351487E+03
AA216                         
 0.1461774190546E+08 0.2505628682963E+03
AA217                         
 0.1461762998285E+08 0.2505556098676E+03
AA218                         
 0.1461611868063E+08 0.2504542306472E+03
AA219                         
 0.1461601047156E+08 0.2504513826689E+03
AA220                         
 0.1461595956737E+08 0.2504473708336E+03
AA221                         
 0.1461592287771E+08 0.2504434129837E+03
AA222                         
 0.1461591785194E+08 0.2504408605608E+03
AA223                         
 0.1461688886966E+08 0.2505034430393E+03
AA224                         
 0.1461704701484E+08 0.2505174129642E+03
AA225                         
 0.1461722518980E+08 0.2505299259805E+03
AA226                         
 0.1461738768934E+08 0.2505405458775E+03
AA227                         
 0.1461752204513E+08 0.2505490886859E+03
AA228                         
 0.1461770411556E+08 0.2505602591501E+03
AA229                         
 0.1461762507731E+08 0.2505555537198E+03
AA230                         
 0.1461769705722E+08 0.2505600410687E+03
AA231                         
 0.1461773941044E+08 0.2505626762540E+03
AA232                         
 0.1461615978069E+08 0.2504571765929E+03
AA233                         
 0.1461605295865E+08 0.2504544397785E+03
AA234                         
 0.1461600393978E+08 0.2504505873912E+03
AA235                         
 0.1461596913470E+08 0.2504467898403E+03
AA236                         
 0.1461596467278E+08 0.2504443632101E+03
AA237                         
 0.1461691306698E+08 0.2505052855085E+03
AA238                         
 0.1461706663157E+08 0.2505188678917E+03
AA239                         
 0.1461776061919E+08 0.2505638822271E+03
AA240                         
 0.1461724006785E+08 0.2505310307754E+03
AA241                         
 0.1461739838105E+08 0.2505413500852E+03
AA242                         
 0.1461752934381E+08 0.2505496468533E+03
AA243                         
 0.1461762981757E+08 0.2505559211122E+03
AA244                         
 0.1461770006656E+08 0.2505602723182E+03
AA245                         
 0.1461774146558E+08 0.2505628257917E+03
AA246                         
 0.1461623413062E+08 0.2504636829364E+03
AA247                         
 0.1461614565989E+08 0.2504611773199E+03
AA248                         
 0.1461610176278E+08 0.2504576561592E+03
AA249                         
 0.1461607006736E+08 0.2504541970334E+03
AA250                         
 0.1461779749216E+08 0.2505664516874E+03
AA251                         
 0.1461606567828E+08 0.2504520267577E+03
AA252                         
 0.1461696482443E+08 0.2505093400240E+03
AA253                         
 0.1461711073870E+08 0.2505220680872E+03
AA254                         
 0.1461727477111E+08 0.2505334724929E+03
AA255                         
 0.1461742428695E+08 0.2505431526028E+03
AA256                         
 0.1461754793830E+08 0.2505509374362E+03
AA257                         
 0.1461764280317E+08 0.2505568248064E+03
AA258                         
 0.1461770914453E+08 0.2505609071316E+03
AA259                         
 0.1461774825545E+08 0.2505633023453E+03
AA260                         
 0.1461633851904E+08 0.2504730613271E+03
AA261                         
 0.1461779662098E+08 0.2505679395500E+03
AA262                         
 0.1461627979963E+08 0.2504708791944E+03
AA263                         
 0.1461624344126E+08 0.2504678184783E+03
AA264                         
 0.1461621602223E+08 0.2504648306396E+03
AA265                         
 0.1461621250565E+08 0.2504630145364E+03
AA266                         
 0.1461703952173E+08 0.2505151747641E+03
AA267                         
 0.1461717494137E+08 0.2505266768757E+03
AA268                         
 0.1461732579208E+08 0.2505369983292E+03
AA269                         
 0.1461746276647E+08 0.2505457690401E+03
AA270                         
 0.1461757590253E+08 0.2505528288496E+03
AA271                         
 0.1461766266167E+08 0.2505581716214E+03
AA272                         
 0.1461659518051E+08 0.2505024182838E+03
AA273                         
 0.1461772333056E+08 0.2505618781004E+03
AA274                         
 0.1461775910020E+08 0.2505640533782E+03
AA275                         
 0.1461646583850E+08 0.2504843414117E+03
AA276                         
 0.1461644233855E+08 0.2504825364014E+03
AA277                         
 0.1461641527171E+08 0.2504800087372E+03
AA278                         
 0.1461639322937E+08 0.2504775646703E+03
AA279                         
 0.1461639232057E+08 0.2504761521590E+03
AA280                         
 0.1461712845571E+08 0.2505221668229E+03
AA281                         
 0.1461725270761E+08 0.2505322134917E+03
AA282                         
 0.1461738815473E+08 0.2505412482940E+03
AA283                         
 0.1461678266358E+08 0.2505048130684E+03
AA284                         
 0.1461670868980E+08 0.2505012742829E+03
AA285                         
 0.1461751005964E+08 0.2505489360937E+03
AA286                         
 0.1461761045308E+08 0.2505551323163E+03
AA287                         
 0.1461768736197E+08 0.2505598273096E+03
AA288                         
 0.1461774112711E+08 0.2505630877547E+03
AA289                         
 0.1461777282503E+08 0.2505650025904E+03
AA290                         
 0.1461660666366E+08 0.2504964373922E+03
AA291                         
 0.1461661955732E+08 0.2504950227212E+03
AA292                         
 0.1461660180146E+08 0.2504930432070E+03
AA293                         
 0.1461658728193E+08 0.2504911539105E+03
AA294                         
 0.1461659783853E+08 0.2504901313074E+03
AA295                         
 0.1461670770871E+08 0.2504996823121E+03
AA296                         
 0.1461663352364E+08 0.2504907293778E+03
AA297                         
 0.1461669217953E+08 0.2504932491243E+03
AA298                         
 0.1461675398544E+08 0.2504978120696E+03
AA299                         
 0.1461686446458E+08 0.2505042464363E+03
AA310                         
 0.1461696286177E+08 0.2505120887271E+03
AA311                         
 0.1461710631608E+08 0.2505207857978E+03
AA312                         
 0.1461721620371E+08 0.2505295601341E+03
AA313                         
 0.1461733648178E+08 0.2505381398633E+03
AA314                         
 0.1461745627685E+08 0.2505458200760E+03
AA315                         
 0.1461756187251E+08 0.2505523570517E+03
AA316                         
 0.1461669897746E+08 0.2504982198715E+03
AA317                         
 0.1461764836746E+08 0.2505576337288E+03
AA318                         
 0.1461771452588E+08 0.2505616391469E+03
AA319                         
 0.1461776075333E+08 0.2505644253328E+03
AA320                         
 0.1461778800284E+08 0.2505660635777E+03
AA321                         
 0.1461674994257E+08 0.2505083037904E+03
AA322                         
 0.1461679575213E+08 0.2505072578139E+03
AA323                         
 0.1461678748100E+08 0.2505057950691E+03
AA324                         
 0.1461677765343E+08 0.2505044346456E+03
AA325                         
 0.1461677934451E+08 0.2505038159966E+03
AA326                         
 0.1461679927800E+08 0.2505044803875E+03
AA327                         
 0.1461669889256E+08 0.2504975564171E+03
AA328                         
 0.1461684138427E+08 0.2505067215036E+03
AA329                         
 0.1461690332157E+08 0.2505106147782E+03
AA330                         
 0.1461698987914E+08 0.2505160009259E+03
AA331                         
 0.1461708854205E+08 0.2505225166847E+03
AA332                         
 0.1461720156154E+08 0.2505296873000E+03
AA333                         
 0.1461731284258E+08 0.2505369822872E+03
AA334                         
 0.1461742280028E+08 0.2505440025423E+03
AA335                         
 0.1461752509751E+08 0.2505503345582E+03
AA336                         
 0.1461761390217E+08 0.2505557434722E+03
AA337                         
 0.1461768635923E+08 0.2505601224807E+03
AA338                         
 0.1461671727740E+08 0.2504982496095E+03
AA339                         
 0.1461774171280E+08 0.2505634560181E+03
AA340                         
 0.1461778036236E+08 0.2505657809059E+03
AA341                         
 0.1461780313457E+08 0.2505671505402E+03
AA342                         
 0.1461688459982E+08 0.2505190475937E+03
AA343                         
 0.1461695742911E+08 0.2505183215886E+03
AA344                         
 0.1461695797236E+08 0.2505173048387E+03
AA345                         
 0.1461695434563E+08 0.2505163960726E+03
AA346                         
 0.1461695787160E+08 0.2505161016301E+03
AA347                         
 0.1461697550960E+08 0.2505168278117E+03
AA348                         
 0.1461701131761E+08 0.2505188084566E+03
AA349                         
 0.1461675979472E+08 0.2505006514187E+03
AA350                         
 0.1461706586989E+08 0.2505220920067E+03
AA351                         
 0.1461713817659E+08 0.2505265425764E+03
AA352                         
 0.1461722329406E+08 0.2505318721331E+03
AA353                         
 0.1461731682656E+08 0.2505377026806E+03
AA354                         
 0.1461741209794E+08 0.2505436313093E+03
AA355                         
 0.1461750445811E+08 0.2505493086136E+03
AA356                         
 0.1461758898699E+08 0.2505544398814E+03
AA357                         
 0.1461766193865E+08 0.2505588371687E+03
AA358                         
 0.1461772133859E+08 0.2505624104470E+03
AA359                         
 0.1461776663931E+08 0.2505651415479E+03
AA360                         
 0.1461682790251E+08 0.2505048538738E+03
AA361                         
 0.1461779819145E+08 0.2505670533881E+03
AA362                         
 0.1461781675396E+08 0.2505681829840E+03
AA363                         
 0.1461700051126E+08 0.2505279844835E+03
AA364                         
 0.1461709346818E+08 0.2505275135445E+03
AA365                         
 0.1461710131139E+08 0.2505268503820E+03
AA366                         
 0.1461710336489E+08 0.2505262964695E+03
AA367                         
 0.1461711042119E+08 0.2505262503539E+03
AA368                         
 0.1461712847474E+08 0.2505270196161E+03
AA369                         
 0.1461716086585E+08 0.2505287791308E+03
AA370                         
 0.1461720835978E+08 0.2505315569352E+03
AA371                         
 0.1461691874607E+08 0.2505106821199E+03
AA372                         
 0.1461726956918E+08 0.2505352388037E+03
AA373                         
 0.1461734112428E+08 0.2505395958276E+03
AA374                         
 0.1461741878527E+08 0.2505443309781E+03
AA375                         
 0.1461749780838E+08 0.2505491314190E+03
AA376                         
 0.1461757381695E+08 0.2505537175795E+03
AA377                         
 0.1461764295024E+08 0.2505578666459E+03
AA378                         
 0.1461770242686E+08 0.2505614329647E+03
AA379                         
 0.1461775071875E+08 0.2505643436928E+03
AA380                         
 0.1461778734609E+08 0.2505665791247E+03
AA381                         
 0.1461781258848E+08 0.2505681495994E+03
AA382                         
 0.1461702615998E+08 0.2505177433207E+03
AA383                         
 0.1461782739077E+08 0.2505690808939E+03
AA384                         
 0.1461708929971E+08 0.2505346423238E+03
AA385                         
 0.1461719570796E+08 0.2505343544466E+03
AA386                         
 0.1461720885904E+08 0.2505339440184E+03
AA387                         
 0.1461721518675E+08 0.2505336421441E+03
AA388                         
 0.1461722511827E+08 0.2505337696540E+03
AA389                         
 0.1461724381508E+08 0.2505345645540E+03
AA390                         
 0.1461727395630E+08 0.2505361568086E+03
AA391                         
 0.1461731614406E+08 0.2505385595122E+03
AA392                         
 0.1461736914945E+08 0.2505416746759E+03
AA393                         
 0.1461714808978E+08 0.2505255345677E+03
AA394                         
 0.1461743028264E+08 0.2505453160922E+03
AA395                         
 0.1461749599305E+08 0.2505492457465E+03
AA396                         
 0.1461756243334E+08 0.2505532147796E+03
AA397                         
 0.1461762595801E+08 0.2505570000700E+03
AA398                         
 0.1461768348637E+08 0.2505604272170E+03
AA399                         
 0.1461773280334E+08 0.2505633817823E+03
AA410                         
 0.1461777259901E+08 0.2505658038310E+03
AA411                         
 0.1461780225490E+08 0.2505676695546E+03
AA412                         
 0.1461782158947E+08 0.2505689745498E+03
AA413                         
 0.1461783300582E+08 0.2505697506414E+03
AA414                         
 0.1461677763332E+08 0.2505035839213E+03
AA415                         
 0.1461727687674E+08 0.2505335143427E+03
AA416                         
 0.1461714481005E+08 0.2505387295866E+03
AA417                         
 0.1461725882135E+08 0.2505385512239E+03
AA418                         
 0.1461727515325E+08 0.2505382916360E+03
AA419                         
 0.1461728407452E+08 0.2505381395921E+03
AA420                         
 0.1461729576989E+08 0.2505383692911E+03
AA421                         
 0.1461731488291E+08 0.2505391771742E+03
AA422                         
 0.1461734367544E+08 0.2505406657411E+03
AA423                         
 0.1461738260866E+08 0.2505428389764E+03
AA424                         
 0.1461743058307E+08 0.2505456087144E+03
AA425                         
 0.1461748527620E+08 0.2505488144702E+03
AA426                         
 0.1461739982010E+08 0.2505411871546E+03
AA427                         
 0.1461754361129E+08 0.2505522538437E+03
AA428                         
 0.1461760226162E+08 0.2505557165782E+03
AA429                         
 0.1461765808696E+08 0.2505590146836E+03
AA430                         
 0.1461770846732E+08 0.2505620025636E+03
AA431                         
 0.1461775148511E+08 0.2505645844613E+03
AA432                         
 0.1461778584216E+08 0.2505667066447E+03
AA433                         
 0.1461781020405E+08 0.2505683347360E+03
AA434                         
 0.1461781648578E+08 0.2505694375011E+03
AA435                         
 0.1461782297755E+08 0.2505701001823E+03
AA436                         
 0.1461612423306E+08 0.2504526746395E+03
AA437                         
 0.1461751166524E+08 0.2505481819485E+03
AA438                         
 0.1461618410973E+08 0.2504496190953E+03
AA439                         
 0.1461637425642E+08 0.2504584281186E+03
AA440                         
 0.1461645553270E+08 0.2504620481803E+03
AA441                         
 0.1461656394274E+08 0.2504764449572E+03
AA442                         
 0.1461671854171E+08 0.2504856398890E+03
AA443                         
 0.1461690582562E+08 0.2505019090416E+03
AA444                         
 0.1461604538439E+08 0.2504448492303E+03
AA445                         
 0.1461622996808E+08 0.2504435214027E+03
AA446                         
 0.1461655314411E+08 0.2504505583667E+03
AA447                         
 0.1461660254949E+08 0.2504698363332E+03
AA448                         
 0.1461760862811E+08 0.2505542503059E+03
AA449                         
 0.1461673533073E+08 0.2504812068179E+03
AA450                         
 0.1461687486921E+08 0.2504972691577E+03
AA451                         
 0.1461602182490E+08 0.2504407819776E+03
AA452                         
 0.1461626207372E+08 0.2504416696416E+03
AA453                         
 0.1461646181820E+08 0.2504469803444E+03
AA454                         
 0.1461665369374E+08 0.2504663289534E+03
AA455                         
 0.1461676060691E+08 0.2504797629960E+03
AA456                         
 0.1461685544194E+08 0.2504948267211E+03
AA457                         
 0.1461603407783E+08 0.2504411400263E+03
AA458                         
 0.1461627675394E+08 0.2504443225545E+03
AA459                         
 0.1461768829330E+08 0.2505592550674E+03
AA460                         
 0.1461649899042E+08 0.2504472123274E+03
AA461                         
 0.1461667307999E+08 0.2504556044647E+03
AA462                         
 0.1461670485186E+08 0.2504663906809E+03
AA463                         
 0.1461679531897E+08 0.2504816024952E+03
AA464                         
 0.1461686298482E+08 0.2504950102062E+03
AA465                         
 0.1461608680037E+08 0.2504459832977E+03
AA466                         
 0.1461631672325E+08 0.2504512569029E+03
AA467                         
 0.1461667974914E+08 0.2504519658514E+03
AA468                         
 0.1461680063713E+08 0.2504629321778E+03
AA469                         
 0.1461675149288E+08 0.2504703066779E+03
AA470                         
 0.1461774942121E+08 0.2505631420497E+03
AA471                         
 0.1461683533107E+08 0.2504865783236E+03
AA472                         
 0.1461689832731E+08 0.2504978832180E+03
AA473                         
 0.1461618904019E+08 0.2504548094925E+03
AA474                         
 0.1461640606499E+08 0.2504617412854E+03
AA475                         
 0.1461650158250E+08 0.2504604220134E+03
AA476                         
 0.1461676174669E+08 0.2504729835932E+03
AA477                         
 0.1461678112220E+08 0.2504779571906E+03
AA478                         
 0.1461688579346E+08 0.2504940659574E+03
AA479                         
 0.1461696003587E+08 0.2505031472225E+03
AA480                         
 0.1461634280069E+08 0.2504666574345E+03
AA481                         
 0.1461779143407E+08 0.2505659014838E+03
AA482                         
 0.1461652243016E+08 0.2504746677314E+03
AA483                         
 0.1461656805407E+08 0.2504719951584E+03
AA484                         
 0.1461672355377E+08 0.2504848490733E+03
AA485                         
 0.1461681387671E+08 0.2504877974571E+03
AA486                         
 0.1461695110062E+08 0.2505034300329E+03
AA487                         
 0.1461703921906E+08 0.2505102447663E+03
AA488                         
 0.1461654607027E+08 0.2504802785151E+03
AA489                         
 0.1461665800227E+08 0.2504887351572E+03
AA490                         
 0.1461667659017E+08 0.2504852445188E+03
AA491                         
 0.1461681772388E+08 0.2504976704826E+03
AA492                         
 0.1461781405209E+08 0.2505675381556E+03
AA493                         
 0.1461688363034E+08 0.2504991015781E+03
AA494                         
 0.1461705157190E+08 0.2505135139985E+03
AA495                         
 0.1461712544798E+08 0.2505184386505E+03
AA496                         
 0.1461651794416E+08 0.2504950469821E+03
AA497                         
 0.1461660048067E+08 0.2504936523298E+03
AA498                         
 0.1461677994233E+08 0.2505030937385E+03
AA499                         
 0.1461659145037E+08 0.2504917005525E+03
AA510                         
 0.1461657700585E+08 0.2504898709183E+03
AA511                         
 0.1461657326581E+08 0.2504889339324E+03
AA512                         
 0.1461659083122E+08 0.2504895394455E+03
AA513                         
 0.1461663617221E+08 0.2504921007405E+03
AA514                         
 0.1461671100459E+08 0.2504967316412E+03
AA515                         
 0.1461681242586E+08 0.2505032378194E+03
AA516                         
 0.1461693444210E+08 0.2505111712439E+03
AA517                         
 0.1461706962443E+08 0.2505199382789E+03
AA518                         
 0.1461720930285E+08 0.2505289116714E+03
AA519                         
 0.1461679888767E+08 0.2505038417495E+03
AA520                         
 0.1461734435726E+08 0.2505375333572E+03
AA521                         
 0.1461746799472E+08 0.2505453717787E+03
AA522                         
 0.1461757534326E+08 0.2505521435516E+03
AA523                         
 0.1461766351466E+08 0.2505577007808E+03
AA524                         
 0.1461773125748E+08 0.2505619954538E+03